*
*
*
*                       LINUX           Thu Jul  3 17:34:39 2014
*
*
*
*  PROGRAM  advgen
*
*  Name           : advgen - QRC - (32-bit)
*  Version        : 9.1.3-p005
*  Build Date     : Tue Aug  3 12:36:00 PDT 2010
*
*  HSPICE LIBRARY
*
*
*
*.GLOBAL vdd vss
*
.SUBCKT SRAM vdd vss wr clk addr0 addr1 addr2 addr3 addr4 addr5 addr6 addr_en data0 data1
+ data2 data3 data4 data5 data6 data7 data8 data9
*
*
*  caps2d version: 10
*
*
*       TRANSISTOR CARDS
*
*
MI0/I4060/T2	BL36	net955	I0/I4060/net13	vss	nfet	L=0.12U
+ W=0.28U
+ AD=0.0896P	AS=0.0504P	PD=1.2U	PS=0.64U
+ wt=2.8e-07 wf=2.8e-07 sd=0 sb=3.2e-07 sa=1.76e-06 rgatemod=1 rbodymod=0 psp=0 par=1 panw6=9.6e-15 panw5=6e-15 panw4=6e-15 panw3=6e-15 panw2=6e-15 nrs=0.93617 nrd=0.93617 ngcon=1 nf=1 mSwitch=0 m=1 lstis=1 lnws=1 blockParametersBetween="PC sub" bentgate=0 PWORIENT=1 PLORIENT=1
MI0/I4052/T2	BL36	net954	I0/I4052/net13	vss	nfet	L=0.12U
+ W=0.28U
+ AD=0.0896P	AS=0.0504P	PD=1.2U	PS=0.64U
+ wt=2.8e-07 wf=2.8e-07 sd=0 sb=3.2e-07 sa=1.76e-06 rgatemod=1 rbodymod=0 psp=0 par=1 panw6=9.6e-15 panw5=6e-15 panw4=6e-15 panw3=6e-15 panw2=6e-15 nrs=0.93617 nrd=0.93617 ngcon=1 nf=1 mSwitch=0 m=1 lstis=1 lnws=1 blockParametersBetween="PC sub" bentgate=0 PWORIENT=1 PLORIENT=1
MI0/I4051/T2	BL36	net953	I0/I4051/net13	vss	nfet	L=0.12U
+ W=0.28U
+ AD=0.0896P	AS=0.0504P	PD=1.2U	PS=0.64U
+ wt=2.8e-07 wf=2.8e-07 sd=0 sb=3.2e-07 sa=1.76e-06 rgatemod=1 rbodymod=0 psp=0 par=1 panw6=9.6e-15 panw5=6e-15 panw4=6e-15 panw3=6e-15 panw2=6e-15 nrs=0.93617 nrd=0.93617 ngcon=1 nf=1 mSwitch=0 m=1 lstis=1 lnws=1 blockParametersBetween="PC sub" bentgate=0 PWORIENT=1 PLORIENT=1
MI0/I4076/T2	BL36	net952	I0/I4076/net13	vss	nfet	L=0.12U
+ W=0.28U
+ AD=0.0896P	AS=0.0504P	PD=1.2U	PS=0.64U
+ wt=2.8e-07 wf=2.8e-07 sd=0 sb=3.2e-07 sa=1.76e-06 rgatemod=1 rbodymod=0 psp=0 par=1 panw6=9.6e-15 panw5=6e-15 panw4=6e-15 panw3=6e-15 panw2=6e-15 nrs=0.93617 nrd=0.93617 ngcon=1 nf=1 mSwitch=0 m=1 lstis=1 lnws=1 blockParametersBetween="PC sub" bentgate=0 PWORIENT=1 PLORIENT=1
MI0/I4057/T2	BL36	net951	I0/I4057/net13	vss	nfet	L=0.12U
+ W=0.28U
+ AD=0.0896P	AS=0.0504P	PD=1.2U	PS=0.64U
+ wt=2.8e-07 wf=2.8e-07 sd=0 sb=3.2e-07 sa=1.76e-06 rgatemod=1 rbodymod=0 psp=0 par=1 panw6=9.6e-15 panw5=6e-15 panw4=6e-15 panw3=6e-15 panw2=6e-15 nrs=0.93617 nrd=0.93617 ngcon=1 nf=1 mSwitch=0 m=1 lstis=1 lnws=1 blockParametersBetween="PC sub" bentgate=0 PWORIENT=1 PLORIENT=1
MI0/I4072/T2	BL36	net950	I0/I4072/net13	vss	nfet	L=0.12U
+ W=0.28U
+ AD=0.0896P	AS=0.0504P	PD=1.2U	PS=0.64U
+ wt=2.8e-07 wf=2.8e-07 sd=0 sb=3.2e-07 sa=1.76e-06 rgatemod=1 rbodymod=0 psp=0 par=1 panw6=9.6e-15 panw5=6e-15 panw4=6e-15 panw3=6e-15 panw2=6e-15 nrs=0.93617 nrd=0.93617 ngcon=1 nf=1 mSwitch=0 m=1 lstis=1 lnws=1 blockParametersBetween="PC sub" bentgate=0 PWORIENT=1 PLORIENT=1
MI0/I4070/T2	BL36	net949	I0/I4070/net13	vss	nfet	L=0.12U
+ W=0.28U
+ AD=0.0896P	AS=0.0504P	PD=1.2U	PS=0.64U
+ wt=2.8e-07 wf=2.8e-07 sd=0 sb=3.2e-07 sa=1.76e-06 rgatemod=1 rbodymod=0 psp=0 par=1 panw6=9.6e-15 panw5=6e-15 panw4=6e-15 panw3=6e-15 panw2=6e-15 nrs=0.93617 nrd=0.93617 ngcon=1 nf=1 mSwitch=0 m=1 lstis=1 lnws=1 blockParametersBetween="PC sub" bentgate=0 PWORIENT=1 PLORIENT=1
MI0/I4066/T2	BL36	net948	I0/I4066/net13	vss	nfet	L=0.12U
+ W=0.28U
+ AD=0.0896P	AS=0.0504P	PD=1.2U	PS=0.64U
+ wt=2.8e-07 wf=2.8e-07 sd=0 sb=3.2e-07 sa=1.76e-06 rgatemod=1 rbodymod=0 psp=0 par=1 panw6=9.6e-15 panw5=6e-15 panw4=6e-15 panw3=6e-15 panw2=6e-15 nrs=0.93617 nrd=0.93617 ngcon=1 nf=1 mSwitch=0 m=1 lstis=1 lnws=1 blockParametersBetween="PC sub" bentgate=0 PWORIENT=1 PLORIENT=1
MI0/I4058/T2	BL36	net947	I0/I4058/net13	vss	nfet	L=0.12U
+ W=0.28U
+ AD=0.0896P	AS=0.0504P	PD=1.2U	PS=0.64U
+ wt=2.8e-07 wf=2.8e-07 sd=0 sb=3.2e-07 sa=1.76e-06 rgatemod=1 rbodymod=0 psp=0 par=1 panw6=9.6e-15 panw5=6e-15 panw4=6e-15 panw3=6e-15 panw2=6e-15 nrs=0.93617 nrd=0.93617 ngcon=1 nf=1 mSwitch=0 m=1 lstis=1 lnws=1 blockParametersBetween="PC sub" bentgate=0 PWORIENT=1 PLORIENT=1
MI0/I4060/T5	I0/I4060/net13	I0/I4060/net049	vss	vss	nfet
+ L=0.12U	W=0.28U
+ AD=0.0504P	AS=0.0504P	PD=0.64U	PS=0.64U
+ wt=2.8e-07 wf=2.8e-07 sd=0 sb=8e-07 sa=1.28e-06 rgatemod=1 rbodymod=0 psp=0 par=1 panw6=9.6e-15 panw5=6e-15 panw4=6e-15 panw3=6e-15 panw2=6e-15 nrs=0.93617 nrd=0.93617 ngcon=1 nf=1 mSwitch=0 m=1 lstis=1 lnws=1 blockParametersBetween="PC sub" bentgate=0 PWORIENT=1 PLORIENT=1
MI0/I4052/T5	I0/I4052/net13	I0/I4052/net049	vss	vss	nfet
+ L=0.12U	W=0.28U
+ AD=0.0504P	AS=0.0504P	PD=0.64U	PS=0.64U
+ wt=2.8e-07 wf=2.8e-07 sd=0 sb=8e-07 sa=1.28e-06 rgatemod=1 rbodymod=0 psp=0 par=1 panw6=9.6e-15 panw5=6e-15 panw4=6e-15 panw3=6e-15 panw2=6e-15 nrs=0.93617 nrd=0.93617 ngcon=1 nf=1 mSwitch=0 m=1 lstis=1 lnws=1 blockParametersBetween="PC sub" bentgate=0 PWORIENT=1 PLORIENT=1
MI0/I4051/T5	I0/I4051/net13	I0/I4051/net049	vss	vss	nfet
+ L=0.12U	W=0.28U
+ AD=0.0504P	AS=0.0504P	PD=0.64U	PS=0.64U
+ wt=2.8e-07 wf=2.8e-07 sd=0 sb=8e-07 sa=1.28e-06 rgatemod=1 rbodymod=0 psp=0 par=1 panw6=9.6e-15 panw5=6e-15 panw4=6e-15 panw3=6e-15 panw2=6e-15 nrs=0.93617 nrd=0.93617 ngcon=1 nf=1 mSwitch=0 m=1 lstis=1 lnws=1 blockParametersBetween="PC sub" bentgate=0 PWORIENT=1 PLORIENT=1
MI0/I4076/T5	I0/I4076/net13	I0/I4076/net049	vss	vss	nfet
+ L=0.12U	W=0.28U
+ AD=0.0504P	AS=0.0504P	PD=0.64U	PS=0.64U
+ wt=2.8e-07 wf=2.8e-07 sd=0 sb=8e-07 sa=1.28e-06 rgatemod=1 rbodymod=0 psp=0 par=1 panw6=9.6e-15 panw5=6e-15 panw4=6e-15 panw3=6e-15 panw2=6e-15 nrs=0.93617 nrd=0.93617 ngcon=1 nf=1 mSwitch=0 m=1 lstis=1 lnws=1 blockParametersBetween="PC sub" bentgate=0 PWORIENT=1 PLORIENT=1
MI0/I4057/T5	I0/I4057/net13	I0/I4057/net049	vss	vss	nfet
+ L=0.12U	W=0.28U
+ AD=0.0504P	AS=0.0504P	PD=0.64U	PS=0.64U
+ wt=2.8e-07 wf=2.8e-07 sd=0 sb=8e-07 sa=1.28e-06 rgatemod=1 rbodymod=0 psp=0 par=1 panw6=9.6e-15 panw5=6e-15 panw4=6e-15 panw3=6e-15 panw2=6e-15 nrs=0.93617 nrd=0.93617 ngcon=1 nf=1 mSwitch=0 m=1 lstis=1 lnws=1 blockParametersBetween="PC sub" bentgate=0 PWORIENT=1 PLORIENT=1
MI0/I4072/T5	I0/I4072/net13	I0/I4072/net049	vss	vss	nfet
+ L=0.12U	W=0.28U
+ AD=0.0504P	AS=0.0504P	PD=0.64U	PS=0.64U
+ wt=2.8e-07 wf=2.8e-07 sd=0 sb=8e-07 sa=1.28e-06 rgatemod=1 rbodymod=0 psp=0 par=1 panw6=9.6e-15 panw5=6e-15 panw4=6e-15 panw3=6e-15 panw2=6e-15 nrs=0.93617 nrd=0.93617 ngcon=1 nf=1 mSwitch=0 m=1 lstis=1 lnws=1 blockParametersBetween="PC sub" bentgate=0 PWORIENT=1 PLORIENT=1
MI0/I4070/T5	I0/I4070/net13	I0/I4070/net049	vss	vss	nfet
+ L=0.12U	W=0.28U
+ AD=0.0504P	AS=0.0504P	PD=0.64U	PS=0.64U
+ wt=2.8e-07 wf=2.8e-07 sd=0 sb=8e-07 sa=1.28e-06 rgatemod=1 rbodymod=0 psp=0 par=1 panw6=9.6e-15 panw5=6e-15 panw4=6e-15 panw3=6e-15 panw2=6e-15 nrs=0.93617 nrd=0.93617 ngcon=1 nf=1 mSwitch=0 m=1 lstis=1 lnws=1 blockParametersBetween="PC sub" bentgate=0 PWORIENT=1 PLORIENT=1
MI0/I4066/T5	I0/I4066/net13	I0/I4066/net049	vss	vss	nfet
+ L=0.12U	W=0.28U
+ AD=0.0504P	AS=0.0504P	PD=0.64U	PS=0.64U
+ wt=2.8e-07 wf=2.8e-07 sd=0 sb=8e-07 sa=1.28e-06 rgatemod=1 rbodymod=0 psp=0 par=1 panw6=9.6e-15 panw5=6e-15 panw4=6e-15 panw3=6e-15 panw2=6e-15 nrs=0.93617 nrd=0.93617 ngcon=1 nf=1 mSwitch=0 m=1 lstis=1 lnws=1 blockParametersBetween="PC sub" bentgate=0 PWORIENT=1 PLORIENT=1
MI0/I4058/T5	I0/I4058/net13	I0/I4058/net049	vss	vss	nfet
+ L=0.12U	W=0.28U
+ AD=0.0504P	AS=0.0504P	PD=0.64U	PS=0.64U
+ wt=2.8e-07 wf=2.8e-07 sd=0 sb=8e-07 sa=1.28e-06 rgatemod=1 rbodymod=0 psp=0 par=1 panw6=9.6e-15 panw5=6e-15 panw4=6e-15 panw3=6e-15 panw2=6e-15 nrs=0.93617 nrd=0.93617 ngcon=1 nf=1 mSwitch=0 m=1 lstis=1 lnws=1 blockParametersBetween="PC sub" bentgate=0 PWORIENT=1 PLORIENT=1
MI0/I4060/T4	vss	I0/I4060/net13	I0/I4060/net049	vss	nfet
+ L=0.12U	W=0.28U
+ AD=0.0504P	AS=0.0504P	PD=0.64U	PS=0.64U
+ wt=2.8e-07 wf=2.8e-07 sd=0 sb=1.28e-06 sa=8e-07 rgatemod=1 rbodymod=0 psp=0 par=1 panw6=9.6e-15 panw5=6e-15 panw4=6e-15 panw3=6e-15 panw2=6e-15 nrs=0.93617 nrd=0.93617 ngcon=1 nf=1 mSwitch=0 m=1 lstis=1 lnws=1 blockParametersBetween="PC sub" bentgate=0 PWORIENT=1 PLORIENT=1
MI0/I4052/T4	vss	I0/I4052/net13	I0/I4052/net049	vss	nfet
+ L=0.12U	W=0.28U
+ AD=0.0504P	AS=0.0504P	PD=0.64U	PS=0.64U
+ wt=2.8e-07 wf=2.8e-07 sd=0 sb=1.28e-06 sa=8e-07 rgatemod=1 rbodymod=0 psp=0 par=1 panw6=9.6e-15 panw5=6e-15 panw4=6e-15 panw3=6e-15 panw2=6e-15 nrs=0.93617 nrd=0.93617 ngcon=1 nf=1 mSwitch=0 m=1 lstis=1 lnws=1 blockParametersBetween="PC sub" bentgate=0 PWORIENT=1 PLORIENT=1
MI0/I4051/T4	vss	I0/I4051/net13	I0/I4051/net049	vss	nfet
+ L=0.12U	W=0.28U
+ AD=0.0504P	AS=0.0504P	PD=0.64U	PS=0.64U
+ wt=2.8e-07 wf=2.8e-07 sd=0 sb=1.28e-06 sa=8e-07 rgatemod=1 rbodymod=0 psp=0 par=1 panw6=9.6e-15 panw5=6e-15 panw4=6e-15 panw3=6e-15 panw2=6e-15 nrs=0.93617 nrd=0.93617 ngcon=1 nf=1 mSwitch=0 m=1 lstis=1 lnws=1 blockParametersBetween="PC sub" bentgate=0 PWORIENT=1 PLORIENT=1
MI0/I4076/T4	vss	I0/I4076/net13	I0/I4076/net049	vss	nfet
+ L=0.12U	W=0.28U
+ AD=0.0504P	AS=0.0504P	PD=0.64U	PS=0.64U
+ wt=2.8e-07 wf=2.8e-07 sd=0 sb=1.28e-06 sa=8e-07 rgatemod=1 rbodymod=0 psp=0 par=1 panw6=9.6e-15 panw5=6e-15 panw4=6e-15 panw3=6e-15 panw2=6e-15 nrs=0.93617 nrd=0.93617 ngcon=1 nf=1 mSwitch=0 m=1 lstis=1 lnws=1 blockParametersBetween="PC sub" bentgate=0 PWORIENT=1 PLORIENT=1
MI0/I4057/T4	vss	I0/I4057/net13	I0/I4057/net049	vss	nfet
+ L=0.12U	W=0.28U
+ AD=0.0504P	AS=0.0504P	PD=0.64U	PS=0.64U
+ wt=2.8e-07 wf=2.8e-07 sd=0 sb=1.28e-06 sa=8e-07 rgatemod=1 rbodymod=0 psp=0 par=1 panw6=9.6e-15 panw5=6e-15 panw4=6e-15 panw3=6e-15 panw2=6e-15 nrs=0.93617 nrd=0.93617 ngcon=1 nf=1 mSwitch=0 m=1 lstis=1 lnws=1 blockParametersBetween="PC sub" bentgate=0 PWORIENT=1 PLORIENT=1
MI0/I4072/T4	vss	I0/I4072/net13	I0/I4072/net049	vss	nfet
+ L=0.12U	W=0.28U
+ AD=0.0504P	AS=0.0504P	PD=0.64U	PS=0.64U
+ wt=2.8e-07 wf=2.8e-07 sd=0 sb=1.28e-06 sa=8e-07 rgatemod=1 rbodymod=0 psp=0 par=1 panw6=9.6e-15 panw5=6e-15 panw4=6e-15 panw3=6e-15 panw2=6e-15 nrs=0.93617 nrd=0.93617 ngcon=1 nf=1 mSwitch=0 m=1 lstis=1 lnws=1 blockParametersBetween="PC sub" bentgate=0 PWORIENT=1 PLORIENT=1
MI0/I4070/T4	vss	I0/I4070/net13	I0/I4070/net049	vss	nfet
+ L=0.12U	W=0.28U
+ AD=0.0504P	AS=0.0504P	PD=0.64U	PS=0.64U
+ wt=2.8e-07 wf=2.8e-07 sd=0 sb=1.28e-06 sa=8e-07 rgatemod=1 rbodymod=0 psp=0 par=1 panw6=9.6e-15 panw5=6e-15 panw4=6e-15 panw3=6e-15 panw2=6e-15 nrs=0.93617 nrd=0.93617 ngcon=1 nf=1 mSwitch=0 m=1 lstis=1 lnws=1 blockParametersBetween="PC sub" bentgate=0 PWORIENT=1 PLORIENT=1
MI0/I4066/T4	vss	I0/I4066/net13	I0/I4066/net049	vss	nfet
+ L=0.12U	W=0.28U
+ AD=0.0504P	AS=0.0504P	PD=0.64U	PS=0.64U
+ wt=2.8e-07 wf=2.8e-07 sd=0 sb=1.28e-06 sa=8e-07 rgatemod=1 rbodymod=0 psp=0 par=1 panw6=9.6e-15 panw5=6e-15 panw4=6e-15 panw3=6e-15 panw2=6e-15 nrs=0.93617 nrd=0.93617 ngcon=1 nf=1 mSwitch=0 m=1 lstis=1 lnws=1 blockParametersBetween="PC sub" bentgate=0 PWORIENT=1 PLORIENT=1
MI0/I4058/T4	vss	I0/I4058/net13	I0/I4058/net049	vss	nfet
+ L=0.12U	W=0.28U
+ AD=0.0504P	AS=0.0504P	PD=0.64U	PS=0.64U
+ wt=2.8e-07 wf=2.8e-07 sd=0 sb=1.28e-06 sa=8e-07 rgatemod=1 rbodymod=0 psp=0 par=1 panw6=9.6e-15 panw5=6e-15 panw4=6e-15 panw3=6e-15 panw2=6e-15 nrs=0.93617 nrd=0.93617 ngcon=1 nf=1 mSwitch=0 m=1 lstis=1 lnws=1 blockParametersBetween="PC sub" bentgate=0 PWORIENT=1 PLORIENT=1
MI0/I4060/T3	I0/I4060/net049	net955	BL36bar	vss	nfet
+ L=0.12U	W=0.28U
+ AD=0.0504P	AS=0.0896P	PD=0.64U	PS=1.2U
+ wt=2.8e-07 wf=2.8e-07 sd=0 sb=1.76e-06 sa=3.2e-07 rgatemod=1 rbodymod=0 psp=0 par=1 panw6=9.6e-15 panw5=6e-15 panw4=6e-15 panw3=6e-15 panw2=6e-15 nrs=0.93617 nrd=0.93617 ngcon=1 nf=1 mSwitch=0 m=1 lstis=1 lnws=1 blockParametersBetween="PC sub" bentgate=0 PWORIENT=1 PLORIENT=1
MI0/I4052/T3	I0/I4052/net049	net954	BL36bar	vss	nfet
+ L=0.12U	W=0.28U
+ AD=0.0504P	AS=0.0896P	PD=0.64U	PS=1.2U
+ wt=2.8e-07 wf=2.8e-07 sd=0 sb=1.76e-06 sa=3.2e-07 rgatemod=1 rbodymod=0 psp=0 par=1 panw6=9.6e-15 panw5=6e-15 panw4=6e-15 panw3=6e-15 panw2=6e-15 nrs=0.93617 nrd=0.93617 ngcon=1 nf=1 mSwitch=0 m=1 lstis=1 lnws=1 blockParametersBetween="PC sub" bentgate=0 PWORIENT=1 PLORIENT=1
MI0/I4051/T3	I0/I4051/net049	net953	BL36bar	vss	nfet
+ L=0.12U	W=0.28U
+ AD=0.0504P	AS=0.0896P	PD=0.64U	PS=1.2U
+ wt=2.8e-07 wf=2.8e-07 sd=0 sb=1.76e-06 sa=3.2e-07 rgatemod=1 rbodymod=0 psp=0 par=1 panw6=9.6e-15 panw5=6e-15 panw4=6e-15 panw3=6e-15 panw2=6e-15 nrs=0.93617 nrd=0.93617 ngcon=1 nf=1 mSwitch=0 m=1 lstis=1 lnws=1 blockParametersBetween="PC sub" bentgate=0 PWORIENT=1 PLORIENT=1
MI0/I4076/T3	I0/I4076/net049	net952	BL36bar	vss	nfet
+ L=0.12U	W=0.28U
+ AD=0.0504P	AS=0.0896P	PD=0.64U	PS=1.2U
+ wt=2.8e-07 wf=2.8e-07 sd=0 sb=1.76e-06 sa=3.2e-07 rgatemod=1 rbodymod=0 psp=0 par=1 panw6=9.6e-15 panw5=6e-15 panw4=6e-15 panw3=6e-15 panw2=6e-15 nrs=0.93617 nrd=0.93617 ngcon=1 nf=1 mSwitch=0 m=1 lstis=1 lnws=1 blockParametersBetween="PC sub" bentgate=0 PWORIENT=1 PLORIENT=1
MI0/I4057/T3	I0/I4057/net049	net951	BL36bar	vss	nfet
+ L=0.12U	W=0.28U
+ AD=0.0504P	AS=0.0896P	PD=0.64U	PS=1.2U
+ wt=2.8e-07 wf=2.8e-07 sd=0 sb=1.76e-06 sa=3.2e-07 rgatemod=1 rbodymod=0 psp=0 par=1 panw6=9.6e-15 panw5=6e-15 panw4=6e-15 panw3=6e-15 panw2=6e-15 nrs=0.93617 nrd=0.93617 ngcon=1 nf=1 mSwitch=0 m=1 lstis=1 lnws=1 blockParametersBetween="PC sub" bentgate=0 PWORIENT=1 PLORIENT=1
MI0/I4072/T3	I0/I4072/net049	net950	BL36bar	vss	nfet
+ L=0.12U	W=0.28U
+ AD=0.0504P	AS=0.0896P	PD=0.64U	PS=1.2U
+ wt=2.8e-07 wf=2.8e-07 sd=0 sb=1.76e-06 sa=3.2e-07 rgatemod=1 rbodymod=0 psp=0 par=1 panw6=9.6e-15 panw5=6e-15 panw4=6e-15 panw3=6e-15 panw2=6e-15 nrs=0.93617 nrd=0.93617 ngcon=1 nf=1 mSwitch=0 m=1 lstis=1 lnws=1 blockParametersBetween="PC sub" bentgate=0 PWORIENT=1 PLORIENT=1
MI0/I4070/T3	I0/I4070/net049	net949	BL36bar	vss	nfet
+ L=0.12U	W=0.28U
+ AD=0.0504P	AS=0.0896P	PD=0.64U	PS=1.2U
+ wt=2.8e-07 wf=2.8e-07 sd=0 sb=1.76e-06 sa=3.2e-07 rgatemod=1 rbodymod=0 psp=0 par=1 panw6=9.6e-15 panw5=6e-15 panw4=6e-15 panw3=6e-15 panw2=6e-15 nrs=0.93617 nrd=0.93617 ngcon=1 nf=1 mSwitch=0 m=1 lstis=1 lnws=1 blockParametersBetween="PC sub" bentgate=0 PWORIENT=1 PLORIENT=1
MI0/I4066/T3	I0/I4066/net049	net948	BL36bar	vss	nfet
+ L=0.12U	W=0.28U
+ AD=0.0504P	AS=0.0896P	PD=0.64U	PS=1.2U
+ wt=2.8e-07 wf=2.8e-07 sd=0 sb=1.76e-06 sa=3.2e-07 rgatemod=1 rbodymod=0 psp=0 par=1 panw6=9.6e-15 panw5=6e-15 panw4=6e-15 panw3=6e-15 panw2=6e-15 nrs=0.93617 nrd=0.93617 ngcon=1 nf=1 mSwitch=0 m=1 lstis=1 lnws=1 blockParametersBetween="PC sub" bentgate=0 PWORIENT=1 PLORIENT=1
MI0/I4058/T3	I0/I4058/net049	net947	BL36bar	vss	nfet
+ L=0.12U	W=0.28U
+ AD=0.0504P	AS=0.0896P	PD=0.64U	PS=1.2U
+ wt=2.8e-07 wf=2.8e-07 sd=0 sb=1.76e-06 sa=3.2e-07 rgatemod=1 rbodymod=0 psp=0 par=1 panw6=9.6e-15 panw5=6e-15 panw4=6e-15 panw3=6e-15 panw2=6e-15 nrs=0.93617 nrd=0.93617 ngcon=1 nf=1 mSwitch=0 m=1 lstis=1 lnws=1 blockParametersBetween="PC sub" bentgate=0 PWORIENT=1 PLORIENT=1
MI0/I4156/T4	vss	I0/I4156/net13	I0/I4156/net049	vss	nfet
+ L=0.12U	W=0.28U
+ AD=0.0504P	AS=0.0504P	PD=0.64U	PS=0.64U
+ wt=2.8e-07 wf=2.8e-07 sd=0 sb=1.28e-06 sa=8e-07 rgatemod=1 rbodymod=0 psp=0 par=1 panw6=9.6e-15 panw5=6e-15 panw4=6e-15 panw3=6e-15 panw2=6e-15 nrs=0.93617 nrd=0.93617 ngcon=1 nf=1 mSwitch=0 m=1 lstis=1 lnws=1 blockParametersBetween="PC sub" bentgate=0 PWORIENT=1 PLORIENT=1
MI0/I4148/T4	vss	I0/I4148/net13	I0/I4148/net049	vss	nfet
+ L=0.12U	W=0.28U
+ AD=0.0504P	AS=0.0504P	PD=0.64U	PS=0.64U
+ wt=2.8e-07 wf=2.8e-07 sd=0 sb=1.28e-06 sa=8e-07 rgatemod=1 rbodymod=0 psp=0 par=1 panw6=9.6e-15 panw5=6e-15 panw4=6e-15 panw3=6e-15 panw2=6e-15 nrs=0.93617 nrd=0.93617 ngcon=1 nf=1 mSwitch=0 m=1 lstis=1 lnws=1 blockParametersBetween="PC sub" bentgate=0 PWORIENT=1 PLORIENT=1
MI0/I4156/T5	I0/I4156/net13	I0/I4156/net049	vss	vss	nfet
+ L=0.12U	W=0.28U
+ AD=0.0504P	AS=0.0504P	PD=0.64U	PS=0.64U
+ wt=2.8e-07 wf=2.8e-07 sd=0 sb=8e-07 sa=1.28e-06 rgatemod=1 rbodymod=0 psp=0 par=1 panw6=9.6e-15 panw5=6e-15 panw4=6e-15 panw3=6e-15 panw2=6e-15 nrs=0.93617 nrd=0.93617 ngcon=1 nf=1 mSwitch=0 m=1 lstis=1 lnws=1 blockParametersBetween="PC sub" bentgate=0 PWORIENT=1 PLORIENT=1
MI0/I4148/T5	I0/I4148/net13	I0/I4148/net049	vss	vss	nfet
+ L=0.12U	W=0.28U
+ AD=0.0504P	AS=0.0504P	PD=0.64U	PS=0.64U
+ wt=2.8e-07 wf=2.8e-07 sd=0 sb=8e-07 sa=1.28e-06 rgatemod=1 rbodymod=0 psp=0 par=1 panw6=9.6e-15 panw5=6e-15 panw4=6e-15 panw3=6e-15 panw2=6e-15 nrs=0.93617 nrd=0.93617 ngcon=1 nf=1 mSwitch=0 m=1 lstis=1 lnws=1 blockParametersBetween="PC sub" bentgate=0 PWORIENT=1 PLORIENT=1
MI0/I4156/T2	BL37	net955	I0/I4156/net13	vss	nfet	L=0.12U
+ W=0.28U
+ AD=0.0896P	AS=0.0504P	PD=1.2U	PS=0.64U
+ wt=2.8e-07 wf=2.8e-07 sd=0 sb=3.2e-07 sa=1.76e-06 rgatemod=1 rbodymod=0 psp=0 par=1 panw6=9.6e-15 panw5=6e-15 panw4=6e-15 panw3=6e-15 panw2=6e-15 nrs=0.93617 nrd=0.93617 ngcon=1 nf=1 mSwitch=0 m=1 lstis=1 lnws=1 blockParametersBetween="PC sub" bentgate=0 PWORIENT=1 PLORIENT=1
MI0/I4148/T2	BL37	net954	I0/I4148/net13	vss	nfet	L=0.12U
+ W=0.28U
+ AD=0.0896P	AS=0.0504P	PD=1.2U	PS=0.64U
+ wt=2.8e-07 wf=2.8e-07 sd=0 sb=3.2e-07 sa=1.76e-06 rgatemod=1 rbodymod=0 psp=0 par=1 panw6=9.6e-15 panw5=6e-15 panw4=6e-15 panw3=6e-15 panw2=6e-15 nrs=0.93617 nrd=0.93617 ngcon=1 nf=1 mSwitch=0 m=1 lstis=1 lnws=1 blockParametersBetween="PC sub" bentgate=0 PWORIENT=1 PLORIENT=1
MI0/I4147/T4	vss	I0/I4147/net13	I0/I4147/net049	vss	nfet
+ L=0.12U	W=0.28U
+ AD=0.0504P	AS=0.0504P	PD=0.64U	PS=0.64U
+ wt=2.8e-07 wf=2.8e-07 sd=0 sb=1.28e-06 sa=8e-07 rgatemod=1 rbodymod=0 psp=0 par=1 panw6=9.6e-15 panw5=6e-15 panw4=6e-15 panw3=6e-15 panw2=6e-15 nrs=0.93617 nrd=0.93617 ngcon=1 nf=1 mSwitch=0 m=1 lstis=1 lnws=1 blockParametersBetween="PC sub" bentgate=0 PWORIENT=1 PLORIENT=1
MI0/I4172/T4	vss	I0/I4172/net13	I0/I4172/net049	vss	nfet
+ L=0.12U	W=0.28U
+ AD=0.0504P	AS=0.0504P	PD=0.64U	PS=0.64U
+ wt=2.8e-07 wf=2.8e-07 sd=0 sb=1.28e-06 sa=8e-07 rgatemod=1 rbodymod=0 psp=0 par=1 panw6=9.6e-15 panw5=6e-15 panw4=6e-15 panw3=6e-15 panw2=6e-15 nrs=0.93617 nrd=0.93617 ngcon=1 nf=1 mSwitch=0 m=1 lstis=1 lnws=1 blockParametersBetween="PC sub" bentgate=0 PWORIENT=1 PLORIENT=1
MI0/I4147/T5	I0/I4147/net13	I0/I4147/net049	vss	vss	nfet
+ L=0.12U	W=0.28U
+ AD=0.0504P	AS=0.0504P	PD=0.64U	PS=0.64U
+ wt=2.8e-07 wf=2.8e-07 sd=0 sb=8e-07 sa=1.28e-06 rgatemod=1 rbodymod=0 psp=0 par=1 panw6=9.6e-15 panw5=6e-15 panw4=6e-15 panw3=6e-15 panw2=6e-15 nrs=0.93617 nrd=0.93617 ngcon=1 nf=1 mSwitch=0 m=1 lstis=1 lnws=1 blockParametersBetween="PC sub" bentgate=0 PWORIENT=1 PLORIENT=1
MI0/I4172/T5	I0/I4172/net13	I0/I4172/net049	vss	vss	nfet
+ L=0.12U	W=0.28U
+ AD=0.0504P	AS=0.0504P	PD=0.64U	PS=0.64U
+ wt=2.8e-07 wf=2.8e-07 sd=0 sb=8e-07 sa=1.28e-06 rgatemod=1 rbodymod=0 psp=0 par=1 panw6=9.6e-15 panw5=6e-15 panw4=6e-15 panw3=6e-15 panw2=6e-15 nrs=0.93617 nrd=0.93617 ngcon=1 nf=1 mSwitch=0 m=1 lstis=1 lnws=1 blockParametersBetween="PC sub" bentgate=0 PWORIENT=1 PLORIENT=1
MI0/I4147/T2	BL37	net953	I0/I4147/net13	vss	nfet	L=0.12U
+ W=0.28U
+ AD=0.0896P	AS=0.0504P	PD=1.2U	PS=0.64U
+ wt=2.8e-07 wf=2.8e-07 sd=0 sb=3.2e-07 sa=1.76e-06 rgatemod=1 rbodymod=0 psp=0 par=1 panw6=9.6e-15 panw5=6e-15 panw4=6e-15 panw3=6e-15 panw2=6e-15 nrs=0.93617 nrd=0.93617 ngcon=1 nf=1 mSwitch=0 m=1 lstis=1 lnws=1 blockParametersBetween="PC sub" bentgate=0 PWORIENT=1 PLORIENT=1
MI0/I4172/T2	BL37	net952	I0/I4172/net13	vss	nfet	L=0.12U
+ W=0.28U
+ AD=0.0896P	AS=0.0504P	PD=1.2U	PS=0.64U
+ wt=2.8e-07 wf=2.8e-07 sd=0 sb=3.2e-07 sa=1.76e-06 rgatemod=1 rbodymod=0 psp=0 par=1 panw6=9.6e-15 panw5=6e-15 panw4=6e-15 panw3=6e-15 panw2=6e-15 nrs=0.93617 nrd=0.93617 ngcon=1 nf=1 mSwitch=0 m=1 lstis=1 lnws=1 blockParametersBetween="PC sub" bentgate=0 PWORIENT=1 PLORIENT=1
MI0/I4153/T4	vss	I0/I4153/net13	I0/I4153/net049	vss	nfet
+ L=0.12U	W=0.28U
+ AD=0.0504P	AS=0.0504P	PD=0.64U	PS=0.64U
+ wt=2.8e-07 wf=2.8e-07 sd=0 sb=1.28e-06 sa=8e-07 rgatemod=1 rbodymod=0 psp=0 par=1 panw6=9.6e-15 panw5=6e-15 panw4=6e-15 panw3=6e-15 panw2=6e-15 nrs=0.93617 nrd=0.93617 ngcon=1 nf=1 mSwitch=0 m=1 lstis=1 lnws=1 blockParametersBetween="PC sub" bentgate=0 PWORIENT=1 PLORIENT=1
MI0/I4153/T5	I0/I4153/net13	I0/I4153/net049	vss	vss	nfet
+ L=0.12U	W=0.28U
+ AD=0.0504P	AS=0.0504P	PD=0.64U	PS=0.64U
+ wt=2.8e-07 wf=2.8e-07 sd=0 sb=8e-07 sa=1.28e-06 rgatemod=1 rbodymod=0 psp=0 par=1 panw6=9.6e-15 panw5=6e-15 panw4=6e-15 panw3=6e-15 panw2=6e-15 nrs=0.93617 nrd=0.93617 ngcon=1 nf=1 mSwitch=0 m=1 lstis=1 lnws=1 blockParametersBetween="PC sub" bentgate=0 PWORIENT=1 PLORIENT=1
MI0/I4153/T2	BL37	net951	I0/I4153/net13	vss	nfet	L=0.12U
+ W=0.28U
+ AD=0.0896P	AS=0.0504P	PD=1.2U	PS=0.64U
+ wt=2.8e-07 wf=2.8e-07 sd=0 sb=3.2e-07 sa=1.76e-06 rgatemod=1 rbodymod=0 psp=0 par=1 panw6=9.6e-15 panw5=6e-15 panw4=6e-15 panw3=6e-15 panw2=6e-15 nrs=0.93617 nrd=0.93617 ngcon=1 nf=1 mSwitch=0 m=1 lstis=1 lnws=1 blockParametersBetween="PC sub" bentgate=0 PWORIENT=1 PLORIENT=1
MI0/I4168/T4	vss	I0/I4168/net13	I0/I4168/net049	vss	nfet
+ L=0.12U	W=0.28U
+ AD=0.0504P	AS=0.0504P	PD=0.64U	PS=0.64U
+ wt=2.8e-07 wf=2.8e-07 sd=0 sb=1.28e-06 sa=8e-07 rgatemod=1 rbodymod=0 psp=0 par=1 panw6=9.6e-15 panw5=6e-15 panw4=6e-15 panw3=6e-15 panw2=6e-15 nrs=0.93617 nrd=0.93617 ngcon=1 nf=1 mSwitch=0 m=1 lstis=1 lnws=1 blockParametersBetween="PC sub" bentgate=0 PWORIENT=1 PLORIENT=1
MI0/I4166/T4	vss	I0/I4166/net13	I0/I4166/net049	vss	nfet
+ L=0.12U	W=0.28U
+ AD=0.0504P	AS=0.0504P	PD=0.64U	PS=0.64U
+ wt=2.8e-07 wf=2.8e-07 sd=0 sb=1.28e-06 sa=8e-07 rgatemod=1 rbodymod=0 psp=0 par=1 panw6=9.6e-15 panw5=6e-15 panw4=6e-15 panw3=6e-15 panw2=6e-15 nrs=0.93617 nrd=0.93617 ngcon=1 nf=1 mSwitch=0 m=1 lstis=1 lnws=1 blockParametersBetween="PC sub" bentgate=0 PWORIENT=1 PLORIENT=1
MI0/I4168/T5	I0/I4168/net13	I0/I4168/net049	vss	vss	nfet
+ L=0.12U	W=0.28U
+ AD=0.0504P	AS=0.0504P	PD=0.64U	PS=0.64U
+ wt=2.8e-07 wf=2.8e-07 sd=0 sb=8e-07 sa=1.28e-06 rgatemod=1 rbodymod=0 psp=0 par=1 panw6=9.6e-15 panw5=6e-15 panw4=6e-15 panw3=6e-15 panw2=6e-15 nrs=0.93617 nrd=0.93617 ngcon=1 nf=1 mSwitch=0 m=1 lstis=1 lnws=1 blockParametersBetween="PC sub" bentgate=0 PWORIENT=1 PLORIENT=1
MI0/I4166/T5	I0/I4166/net13	I0/I4166/net049	vss	vss	nfet
+ L=0.12U	W=0.28U
+ AD=0.0504P	AS=0.0504P	PD=0.64U	PS=0.64U
+ wt=2.8e-07 wf=2.8e-07 sd=0 sb=8e-07 sa=1.28e-06 rgatemod=1 rbodymod=0 psp=0 par=1 panw6=9.6e-15 panw5=6e-15 panw4=6e-15 panw3=6e-15 panw2=6e-15 nrs=0.93617 nrd=0.93617 ngcon=1 nf=1 mSwitch=0 m=1 lstis=1 lnws=1 blockParametersBetween="PC sub" bentgate=0 PWORIENT=1 PLORIENT=1
MI0/I4168/T2	BL37	net950	I0/I4168/net13	vss	nfet	L=0.12U
+ W=0.28U
+ AD=0.0896P	AS=0.0504P	PD=1.2U	PS=0.64U
+ wt=2.8e-07 wf=2.8e-07 sd=0 sb=3.2e-07 sa=1.76e-06 rgatemod=1 rbodymod=0 psp=0 par=1 panw6=9.6e-15 panw5=6e-15 panw4=6e-15 panw3=6e-15 panw2=6e-15 nrs=0.93617 nrd=0.93617 ngcon=1 nf=1 mSwitch=0 m=1 lstis=1 lnws=1 blockParametersBetween="PC sub" bentgate=0 PWORIENT=1 PLORIENT=1
MI0/I4166/T2	BL37	net949	I0/I4166/net13	vss	nfet	L=0.12U
+ W=0.28U
+ AD=0.0896P	AS=0.0504P	PD=1.2U	PS=0.64U
+ wt=2.8e-07 wf=2.8e-07 sd=0 sb=3.2e-07 sa=1.76e-06 rgatemod=1 rbodymod=0 psp=0 par=1 panw6=9.6e-15 panw5=6e-15 panw4=6e-15 panw3=6e-15 panw2=6e-15 nrs=0.93617 nrd=0.93617 ngcon=1 nf=1 mSwitch=0 m=1 lstis=1 lnws=1 blockParametersBetween="PC sub" bentgate=0 PWORIENT=1 PLORIENT=1
MI0/I4162/T4	vss	I0/I4162/net13	I0/I4162/net049	vss	nfet
+ L=0.12U	W=0.28U
+ AD=0.0504P	AS=0.0504P	PD=0.64U	PS=0.64U
+ wt=2.8e-07 wf=2.8e-07 sd=0 sb=1.28e-06 sa=8e-07 rgatemod=1 rbodymod=0 psp=0 par=1 panw6=9.6e-15 panw5=6e-15 panw4=6e-15 panw3=6e-15 panw2=6e-15 nrs=0.93617 nrd=0.93617 ngcon=1 nf=1 mSwitch=0 m=1 lstis=1 lnws=1 blockParametersBetween="PC sub" bentgate=0 PWORIENT=1 PLORIENT=1
MI0/I4154/T4	vss	I0/I4154/net13	I0/I4154/net049	vss	nfet
+ L=0.12U	W=0.28U
+ AD=0.0504P	AS=0.0504P	PD=0.64U	PS=0.64U
+ wt=2.8e-07 wf=2.8e-07 sd=0 sb=1.28e-06 sa=8e-07 rgatemod=1 rbodymod=0 psp=0 par=1 panw6=9.6e-15 panw5=6e-15 panw4=6e-15 panw3=6e-15 panw2=6e-15 nrs=0.93617 nrd=0.93617 ngcon=1 nf=1 mSwitch=0 m=1 lstis=1 lnws=1 blockParametersBetween="PC sub" bentgate=0 PWORIENT=1 PLORIENT=1
MI0/I4162/T5	I0/I4162/net13	I0/I4162/net049	vss	vss	nfet
+ L=0.12U	W=0.28U
+ AD=0.0504P	AS=0.0504P	PD=0.64U	PS=0.64U
+ wt=2.8e-07 wf=2.8e-07 sd=0 sb=8e-07 sa=1.28e-06 rgatemod=1 rbodymod=0 psp=0 par=1 panw6=9.6e-15 panw5=6e-15 panw4=6e-15 panw3=6e-15 panw2=6e-15 nrs=0.93617 nrd=0.93617 ngcon=1 nf=1 mSwitch=0 m=1 lstis=1 lnws=1 blockParametersBetween="PC sub" bentgate=0 PWORIENT=1 PLORIENT=1
MI0/I4154/T5	I0/I4154/net13	I0/I4154/net049	vss	vss	nfet
+ L=0.12U	W=0.28U
+ AD=0.0504P	AS=0.0504P	PD=0.64U	PS=0.64U
+ wt=2.8e-07 wf=2.8e-07 sd=0 sb=8e-07 sa=1.28e-06 rgatemod=1 rbodymod=0 psp=0 par=1 panw6=9.6e-15 panw5=6e-15 panw4=6e-15 panw3=6e-15 panw2=6e-15 nrs=0.93617 nrd=0.93617 ngcon=1 nf=1 mSwitch=0 m=1 lstis=1 lnws=1 blockParametersBetween="PC sub" bentgate=0 PWORIENT=1 PLORIENT=1
MI0/I4162/T2	BL37	net948	I0/I4162/net13	vss	nfet	L=0.12U
+ W=0.28U
+ AD=0.0896P	AS=0.0504P	PD=1.2U	PS=0.64U
+ wt=2.8e-07 wf=2.8e-07 sd=0 sb=3.2e-07 sa=1.76e-06 rgatemod=1 rbodymod=0 psp=0 par=1 panw6=9.6e-15 panw5=6e-15 panw4=6e-15 panw3=6e-15 panw2=6e-15 nrs=0.93617 nrd=0.93617 ngcon=1 nf=1 mSwitch=0 m=1 lstis=1 lnws=1 blockParametersBetween="PC sub" bentgate=0 PWORIENT=1 PLORIENT=1
MI0/I4154/T2	BL37	net947	I0/I4154/net13	vss	nfet	L=0.12U
+ W=0.28U
+ AD=0.0896P	AS=0.0504P	PD=1.2U	PS=0.64U
+ wt=2.8e-07 wf=2.8e-07 sd=0 sb=3.2e-07 sa=1.76e-06 rgatemod=1 rbodymod=0 psp=0 par=1 panw6=9.6e-15 panw5=6e-15 panw4=6e-15 panw3=6e-15 panw2=6e-15 nrs=0.93617 nrd=0.93617 ngcon=1 nf=1 mSwitch=0 m=1 lstis=1 lnws=1 blockParametersBetween="PC sub" bentgate=0 PWORIENT=1 PLORIENT=1
MI0/I4156/T3	I0/I4156/net049	net955	BL37bar	vss	nfet
+ L=0.12U	W=0.28U
+ AD=0.0504P	AS=0.0896P	PD=0.64U	PS=1.2U
+ wt=2.8e-07 wf=2.8e-07 sd=0 sb=1.76e-06 sa=3.2e-07 rgatemod=1 rbodymod=0 psp=0 par=1 panw6=9.6e-15 panw5=6e-15 panw4=6e-15 panw3=6e-15 panw2=6e-15 nrs=0.93617 nrd=0.93617 ngcon=1 nf=1 mSwitch=0 m=1 lstis=1 lnws=1 blockParametersBetween="PC sub" bentgate=0 PWORIENT=1 PLORIENT=1
MI0/I4148/T3	I0/I4148/net049	net954	BL37bar	vss	nfet
+ L=0.12U	W=0.28U
+ AD=0.0504P	AS=0.0896P	PD=0.64U	PS=1.2U
+ wt=2.8e-07 wf=2.8e-07 sd=0 sb=1.76e-06 sa=3.2e-07 rgatemod=1 rbodymod=0 psp=0 par=1 panw6=9.6e-15 panw5=6e-15 panw4=6e-15 panw3=6e-15 panw2=6e-15 nrs=0.93617 nrd=0.93617 ngcon=1 nf=1 mSwitch=0 m=1 lstis=1 lnws=1 blockParametersBetween="PC sub" bentgate=0 PWORIENT=1 PLORIENT=1
MI0/I4147/T3	I0/I4147/net049	net953	BL37bar	vss	nfet
+ L=0.12U	W=0.28U
+ AD=0.0504P	AS=0.0896P	PD=0.64U	PS=1.2U
+ wt=2.8e-07 wf=2.8e-07 sd=0 sb=1.76e-06 sa=3.2e-07 rgatemod=1 rbodymod=0 psp=0 par=1 panw6=9.6e-15 panw5=6e-15 panw4=6e-15 panw3=6e-15 panw2=6e-15 nrs=0.93617 nrd=0.93617 ngcon=1 nf=1 mSwitch=0 m=1 lstis=1 lnws=1 blockParametersBetween="PC sub" bentgate=0 PWORIENT=1 PLORIENT=1
MI0/I4172/T3	I0/I4172/net049	net952	BL37bar	vss	nfet
+ L=0.12U	W=0.28U
+ AD=0.0504P	AS=0.0896P	PD=0.64U	PS=1.2U
+ wt=2.8e-07 wf=2.8e-07 sd=0 sb=1.76e-06 sa=3.2e-07 rgatemod=1 rbodymod=0 psp=0 par=1 panw6=9.6e-15 panw5=6e-15 panw4=6e-15 panw3=6e-15 panw2=6e-15 nrs=0.93617 nrd=0.93617 ngcon=1 nf=1 mSwitch=0 m=1 lstis=1 lnws=1 blockParametersBetween="PC sub" bentgate=0 PWORIENT=1 PLORIENT=1
MI0/I4153/T3	I0/I4153/net049	net951	BL37bar	vss	nfet
+ L=0.12U	W=0.28U
+ AD=0.0504P	AS=0.0896P	PD=0.64U	PS=1.2U
+ wt=2.8e-07 wf=2.8e-07 sd=0 sb=1.76e-06 sa=3.2e-07 rgatemod=1 rbodymod=0 psp=0 par=1 panw6=9.6e-15 panw5=6e-15 panw4=6e-15 panw3=6e-15 panw2=6e-15 nrs=0.93617 nrd=0.93617 ngcon=1 nf=1 mSwitch=0 m=1 lstis=1 lnws=1 blockParametersBetween="PC sub" bentgate=0 PWORIENT=1 PLORIENT=1
MI0/I4168/T3	I0/I4168/net049	net950	BL37bar	vss	nfet
+ L=0.12U	W=0.28U
+ AD=0.0504P	AS=0.0896P	PD=0.64U	PS=1.2U
+ wt=2.8e-07 wf=2.8e-07 sd=0 sb=1.76e-06 sa=3.2e-07 rgatemod=1 rbodymod=0 psp=0 par=1 panw6=9.6e-15 panw5=6e-15 panw4=6e-15 panw3=6e-15 panw2=6e-15 nrs=0.93617 nrd=0.93617 ngcon=1 nf=1 mSwitch=0 m=1 lstis=1 lnws=1 blockParametersBetween="PC sub" bentgate=0 PWORIENT=1 PLORIENT=1
MI0/I4166/T3	I0/I4166/net049	net949	BL37bar	vss	nfet
+ L=0.12U	W=0.28U
+ AD=0.0504P	AS=0.0896P	PD=0.64U	PS=1.2U
+ wt=2.8e-07 wf=2.8e-07 sd=0 sb=1.76e-06 sa=3.2e-07 rgatemod=1 rbodymod=0 psp=0 par=1 panw6=9.6e-15 panw5=6e-15 panw4=6e-15 panw3=6e-15 panw2=6e-15 nrs=0.93617 nrd=0.93617 ngcon=1 nf=1 mSwitch=0 m=1 lstis=1 lnws=1 blockParametersBetween="PC sub" bentgate=0 PWORIENT=1 PLORIENT=1
MI0/I4162/T3	I0/I4162/net049	net948	BL37bar	vss	nfet
+ L=0.12U	W=0.28U
+ AD=0.0504P	AS=0.0896P	PD=0.64U	PS=1.2U
+ wt=2.8e-07 wf=2.8e-07 sd=0 sb=1.76e-06 sa=3.2e-07 rgatemod=1 rbodymod=0 psp=0 par=1 panw6=9.6e-15 panw5=6e-15 panw4=6e-15 panw3=6e-15 panw2=6e-15 nrs=0.93617 nrd=0.93617 ngcon=1 nf=1 mSwitch=0 m=1 lstis=1 lnws=1 blockParametersBetween="PC sub" bentgate=0 PWORIENT=1 PLORIENT=1
MI0/I4154/T3	I0/I4154/net049	net947	BL37bar	vss	nfet
+ L=0.12U	W=0.28U
+ AD=0.0504P	AS=0.0896P	PD=0.64U	PS=1.2U
+ wt=2.8e-07 wf=2.8e-07 sd=0 sb=1.76e-06 sa=3.2e-07 rgatemod=1 rbodymod=0 psp=0 par=1 panw6=9.6e-15 panw5=6e-15 panw4=6e-15 panw3=6e-15 panw2=6e-15 nrs=0.93617 nrd=0.93617 ngcon=1 nf=1 mSwitch=0 m=1 lstis=1 lnws=1 blockParametersBetween="PC sub" bentgate=0 PWORIENT=1 PLORIENT=1
MI0/I4220/T5	I0/I4220/net13	I0/I4220/net049	vss	vss	nfet
+ L=0.12U	W=0.28U
+ AD=0.0504P	AS=0.0504P	PD=0.64U	PS=0.64U
+ wt=2.8e-07 wf=2.8e-07 sd=0 sb=8e-07 sa=1.28e-06 rgatemod=1 rbodymod=0 psp=0 par=1 panw6=9.6e-15 panw5=6e-15 panw4=6e-15 panw3=6e-15 panw2=6e-15 nrs=0.93617 nrd=0.93617 ngcon=1 nf=1 mSwitch=0 m=1 lstis=1 lnws=1 blockParametersBetween="PC sub" bentgate=0 PWORIENT=1 PLORIENT=1
MI0/I4220/T2	BL39	net955	I0/I4220/net13	vss	nfet	L=0.12U
+ W=0.28U
+ AD=0.0896P	AS=0.0504P	PD=1.2U	PS=0.64U
+ wt=2.8e-07 wf=2.8e-07 sd=0 sb=3.2e-07 sa=1.76e-06 rgatemod=1 rbodymod=0 psp=0 par=1 panw6=9.6e-15 panw5=6e-15 panw4=6e-15 panw3=6e-15 panw2=6e-15 nrs=0.93617 nrd=0.93617 ngcon=1 nf=1 mSwitch=0 m=1 lstis=1 lnws=1 blockParametersBetween="PC sub" bentgate=0 PWORIENT=1 PLORIENT=1
MI0/I4188/T3	I0/I4188/net049	net955	BL38bar	vss	nfet
+ L=0.12U	W=0.28U
+ AD=0.0504P	AS=0.0896P	PD=0.64U	PS=1.2U
+ wt=2.8e-07 wf=2.8e-07 sd=0 sb=1.76e-06 sa=3.2e-07 rgatemod=1 rbodymod=0 psp=0 par=1 panw6=9.6e-15 panw5=6e-15 panw4=6e-15 panw3=6e-15 panw2=6e-15 nrs=0.93617 nrd=0.93617 ngcon=1 nf=1 mSwitch=0 m=1 lstis=1 lnws=1 blockParametersBetween="PC sub" bentgate=0 PWORIENT=1 PLORIENT=1
MI0/I4188/T4	vss	I0/I4188/net13	I0/I4188/net049	vss	nfet
+ L=0.12U	W=0.28U
+ AD=0.0504P	AS=0.0504P	PD=0.64U	PS=0.64U
+ wt=2.8e-07 wf=2.8e-07 sd=0 sb=1.28e-06 sa=8e-07 rgatemod=1 rbodymod=0 psp=0 par=1 panw6=9.6e-15 panw5=6e-15 panw4=6e-15 panw3=6e-15 panw2=6e-15 nrs=0.93617 nrd=0.93617 ngcon=1 nf=1 mSwitch=0 m=1 lstis=1 lnws=1 blockParametersBetween="PC sub" bentgate=0 PWORIENT=1 PLORIENT=1
MI0/I4188/T5	I0/I4188/net13	I0/I4188/net049	vss	vss	nfet
+ L=0.12U	W=0.28U
+ AD=0.0504P	AS=0.0504P	PD=0.64U	PS=0.64U
+ wt=2.8e-07 wf=2.8e-07 sd=0 sb=8e-07 sa=1.28e-06 rgatemod=1 rbodymod=0 psp=0 par=1 panw6=9.6e-15 panw5=6e-15 panw4=6e-15 panw3=6e-15 panw2=6e-15 nrs=0.93617 nrd=0.93617 ngcon=1 nf=1 mSwitch=0 m=1 lstis=1 lnws=1 blockParametersBetween="PC sub" bentgate=0 PWORIENT=1 PLORIENT=1
MI0/I4188/T2	BL38	net955	I0/I4188/net13	vss	nfet	L=0.12U
+ W=0.28U
+ AD=0.0896P	AS=0.0504P	PD=1.2U	PS=0.64U
+ wt=2.8e-07 wf=2.8e-07 sd=0 sb=3.2e-07 sa=1.76e-06 rgatemod=1 rbodymod=0 psp=0 par=1 panw6=9.6e-15 panw5=6e-15 panw4=6e-15 panw3=6e-15 panw2=6e-15 nrs=0.93617 nrd=0.93617 ngcon=1 nf=1 mSwitch=0 m=1 lstis=1 lnws=1 blockParametersBetween="PC sub" bentgate=0 PWORIENT=1 PLORIENT=1
MI0/I4212/T5	I0/I4212/net13	I0/I4212/net049	vss	vss	nfet
+ L=0.12U	W=0.28U
+ AD=0.0504P	AS=0.0504P	PD=0.64U	PS=0.64U
+ wt=2.8e-07 wf=2.8e-07 sd=0 sb=8e-07 sa=1.28e-06 rgatemod=1 rbodymod=0 psp=0 par=1 panw6=9.6e-15 panw5=6e-15 panw4=6e-15 panw3=6e-15 panw2=6e-15 nrs=0.93617 nrd=0.93617 ngcon=1 nf=1 mSwitch=0 m=1 lstis=1 lnws=1 blockParametersBetween="PC sub" bentgate=0 PWORIENT=1 PLORIENT=1
MI0/I4212/T2	BL39	net954	I0/I4212/net13	vss	nfet	L=0.12U
+ W=0.28U
+ AD=0.0896P	AS=0.0504P	PD=1.2U	PS=0.64U
+ wt=2.8e-07 wf=2.8e-07 sd=0 sb=3.2e-07 sa=1.76e-06 rgatemod=1 rbodymod=0 psp=0 par=1 panw6=9.6e-15 panw5=6e-15 panw4=6e-15 panw3=6e-15 panw2=6e-15 nrs=0.93617 nrd=0.93617 ngcon=1 nf=1 mSwitch=0 m=1 lstis=1 lnws=1 blockParametersBetween="PC sub" bentgate=0 PWORIENT=1 PLORIENT=1
MI0/I4180/T3	I0/I4180/net049	net954	BL38bar	vss	nfet
+ L=0.12U	W=0.28U
+ AD=0.0504P	AS=0.0896P	PD=0.64U	PS=1.2U
+ wt=2.8e-07 wf=2.8e-07 sd=0 sb=1.76e-06 sa=3.2e-07 rgatemod=1 rbodymod=0 psp=0 par=1 panw6=9.6e-15 panw5=6e-15 panw4=6e-15 panw3=6e-15 panw2=6e-15 nrs=0.93617 nrd=0.93617 ngcon=1 nf=1 mSwitch=0 m=1 lstis=1 lnws=1 blockParametersBetween="PC sub" bentgate=0 PWORIENT=1 PLORIENT=1
MI0/I4180/T4	vss	I0/I4180/net13	I0/I4180/net049	vss	nfet
+ L=0.12U	W=0.28U
+ AD=0.0504P	AS=0.0504P	PD=0.64U	PS=0.64U
+ wt=2.8e-07 wf=2.8e-07 sd=0 sb=1.28e-06 sa=8e-07 rgatemod=1 rbodymod=0 psp=0 par=1 panw6=9.6e-15 panw5=6e-15 panw4=6e-15 panw3=6e-15 panw2=6e-15 nrs=0.93617 nrd=0.93617 ngcon=1 nf=1 mSwitch=0 m=1 lstis=1 lnws=1 blockParametersBetween="PC sub" bentgate=0 PWORIENT=1 PLORIENT=1
MI0/I4180/T5	I0/I4180/net13	I0/I4180/net049	vss	vss	nfet
+ L=0.12U	W=0.28U
+ AD=0.0504P	AS=0.0504P	PD=0.64U	PS=0.64U
+ wt=2.8e-07 wf=2.8e-07 sd=0 sb=8e-07 sa=1.28e-06 rgatemod=1 rbodymod=0 psp=0 par=1 panw6=9.6e-15 panw5=6e-15 panw4=6e-15 panw3=6e-15 panw2=6e-15 nrs=0.93617 nrd=0.93617 ngcon=1 nf=1 mSwitch=0 m=1 lstis=1 lnws=1 blockParametersBetween="PC sub" bentgate=0 PWORIENT=1 PLORIENT=1
MI0/I4180/T2	BL38	net954	I0/I4180/net13	vss	nfet	L=0.12U
+ W=0.28U
+ AD=0.0896P	AS=0.0504P	PD=1.2U	PS=0.64U
+ wt=2.8e-07 wf=2.8e-07 sd=0 sb=3.2e-07 sa=1.76e-06 rgatemod=1 rbodymod=0 psp=0 par=1 panw6=9.6e-15 panw5=6e-15 panw4=6e-15 panw3=6e-15 panw2=6e-15 nrs=0.93617 nrd=0.93617 ngcon=1 nf=1 mSwitch=0 m=1 lstis=1 lnws=1 blockParametersBetween="PC sub" bentgate=0 PWORIENT=1 PLORIENT=1
MI0/I4211/T5	I0/I4211/net13	I0/I4211/net049	vss	vss	nfet
+ L=0.12U	W=0.28U
+ AD=0.0504P	AS=0.0504P	PD=0.64U	PS=0.64U
+ wt=2.8e-07 wf=2.8e-07 sd=0 sb=8e-07 sa=1.28e-06 rgatemod=1 rbodymod=0 psp=0 par=1 panw6=9.6e-15 panw5=6e-15 panw4=6e-15 panw3=6e-15 panw2=6e-15 nrs=0.93617 nrd=0.93617 ngcon=1 nf=1 mSwitch=0 m=1 lstis=1 lnws=1 blockParametersBetween="PC sub" bentgate=0 PWORIENT=1 PLORIENT=1
MI0/I4211/T2	BL39	net953	I0/I4211/net13	vss	nfet	L=0.12U
+ W=0.28U
+ AD=0.0896P	AS=0.0504P	PD=1.2U	PS=0.64U
+ wt=2.8e-07 wf=2.8e-07 sd=0 sb=3.2e-07 sa=1.76e-06 rgatemod=1 rbodymod=0 psp=0 par=1 panw6=9.6e-15 panw5=6e-15 panw4=6e-15 panw3=6e-15 panw2=6e-15 nrs=0.93617 nrd=0.93617 ngcon=1 nf=1 mSwitch=0 m=1 lstis=1 lnws=1 blockParametersBetween="PC sub" bentgate=0 PWORIENT=1 PLORIENT=1
MI0/I4179/T3	I0/I4179/net049	net953	BL38bar	vss	nfet
+ L=0.12U	W=0.28U
+ AD=0.0504P	AS=0.0896P	PD=0.64U	PS=1.2U
+ wt=2.8e-07 wf=2.8e-07 sd=0 sb=1.76e-06 sa=3.2e-07 rgatemod=1 rbodymod=0 psp=0 par=1 panw6=9.6e-15 panw5=6e-15 panw4=6e-15 panw3=6e-15 panw2=6e-15 nrs=0.93617 nrd=0.93617 ngcon=1 nf=1 mSwitch=0 m=1 lstis=1 lnws=1 blockParametersBetween="PC sub" bentgate=0 PWORIENT=1 PLORIENT=1
MI0/I4179/T4	vss	I0/I4179/net13	I0/I4179/net049	vss	nfet
+ L=0.12U	W=0.28U
+ AD=0.0504P	AS=0.0504P	PD=0.64U	PS=0.64U
+ wt=2.8e-07 wf=2.8e-07 sd=0 sb=1.28e-06 sa=8e-07 rgatemod=1 rbodymod=0 psp=0 par=1 panw6=9.6e-15 panw5=6e-15 panw4=6e-15 panw3=6e-15 panw2=6e-15 nrs=0.93617 nrd=0.93617 ngcon=1 nf=1 mSwitch=0 m=1 lstis=1 lnws=1 blockParametersBetween="PC sub" bentgate=0 PWORIENT=1 PLORIENT=1
MI0/I4179/T5	I0/I4179/net13	I0/I4179/net049	vss	vss	nfet
+ L=0.12U	W=0.28U
+ AD=0.0504P	AS=0.0504P	PD=0.64U	PS=0.64U
+ wt=2.8e-07 wf=2.8e-07 sd=0 sb=8e-07 sa=1.28e-06 rgatemod=1 rbodymod=0 psp=0 par=1 panw6=9.6e-15 panw5=6e-15 panw4=6e-15 panw3=6e-15 panw2=6e-15 nrs=0.93617 nrd=0.93617 ngcon=1 nf=1 mSwitch=0 m=1 lstis=1 lnws=1 blockParametersBetween="PC sub" bentgate=0 PWORIENT=1 PLORIENT=1
MI0/I4179/T2	BL38	net953	I0/I4179/net13	vss	nfet	L=0.12U
+ W=0.28U
+ AD=0.0896P	AS=0.0504P	PD=1.2U	PS=0.64U
+ wt=2.8e-07 wf=2.8e-07 sd=0 sb=3.2e-07 sa=1.76e-06 rgatemod=1 rbodymod=0 psp=0 par=1 panw6=9.6e-15 panw5=6e-15 panw4=6e-15 panw3=6e-15 panw2=6e-15 nrs=0.93617 nrd=0.93617 ngcon=1 nf=1 mSwitch=0 m=1 lstis=1 lnws=1 blockParametersBetween="PC sub" bentgate=0 PWORIENT=1 PLORIENT=1
MI0/I4236/T5	I0/I4236/net13	I0/I4236/net049	vss	vss	nfet
+ L=0.12U	W=0.28U
+ AD=0.0504P	AS=0.0504P	PD=0.64U	PS=0.64U
+ wt=2.8e-07 wf=2.8e-07 sd=0 sb=8e-07 sa=1.28e-06 rgatemod=1 rbodymod=0 psp=0 par=1 panw6=9.6e-15 panw5=6e-15 panw4=6e-15 panw3=6e-15 panw2=6e-15 nrs=0.93617 nrd=0.93617 ngcon=1 nf=1 mSwitch=0 m=1 lstis=1 lnws=1 blockParametersBetween="PC sub" bentgate=0 PWORIENT=1 PLORIENT=1
MI0/I4236/T2	BL39	net952	I0/I4236/net13	vss	nfet	L=0.12U
+ W=0.28U
+ AD=0.0896P	AS=0.0504P	PD=1.2U	PS=0.64U
+ wt=2.8e-07 wf=2.8e-07 sd=0 sb=3.2e-07 sa=1.76e-06 rgatemod=1 rbodymod=0 psp=0 par=1 panw6=9.6e-15 panw5=6e-15 panw4=6e-15 panw3=6e-15 panw2=6e-15 nrs=0.93617 nrd=0.93617 ngcon=1 nf=1 mSwitch=0 m=1 lstis=1 lnws=1 blockParametersBetween="PC sub" bentgate=0 PWORIENT=1 PLORIENT=1
MI0/I4204/T3	I0/I4204/net049	net952	BL38bar	vss	nfet
+ L=0.12U	W=0.28U
+ AD=0.0504P	AS=0.0896P	PD=0.64U	PS=1.2U
+ wt=2.8e-07 wf=2.8e-07 sd=0 sb=1.76e-06 sa=3.2e-07 rgatemod=1 rbodymod=0 psp=0 par=1 panw6=9.6e-15 panw5=6e-15 panw4=6e-15 panw3=6e-15 panw2=6e-15 nrs=0.93617 nrd=0.93617 ngcon=1 nf=1 mSwitch=0 m=1 lstis=1 lnws=1 blockParametersBetween="PC sub" bentgate=0 PWORIENT=1 PLORIENT=1
MI0/I4204/T4	vss	I0/I4204/net13	I0/I4204/net049	vss	nfet
+ L=0.12U	W=0.28U
+ AD=0.0504P	AS=0.0504P	PD=0.64U	PS=0.64U
+ wt=2.8e-07 wf=2.8e-07 sd=0 sb=1.28e-06 sa=8e-07 rgatemod=1 rbodymod=0 psp=0 par=1 panw6=9.6e-15 panw5=6e-15 panw4=6e-15 panw3=6e-15 panw2=6e-15 nrs=0.93617 nrd=0.93617 ngcon=1 nf=1 mSwitch=0 m=1 lstis=1 lnws=1 blockParametersBetween="PC sub" bentgate=0 PWORIENT=1 PLORIENT=1
MI0/I4204/T5	I0/I4204/net13	I0/I4204/net049	vss	vss	nfet
+ L=0.12U	W=0.28U
+ AD=0.0504P	AS=0.0504P	PD=0.64U	PS=0.64U
+ wt=2.8e-07 wf=2.8e-07 sd=0 sb=8e-07 sa=1.28e-06 rgatemod=1 rbodymod=0 psp=0 par=1 panw6=9.6e-15 panw5=6e-15 panw4=6e-15 panw3=6e-15 panw2=6e-15 nrs=0.93617 nrd=0.93617 ngcon=1 nf=1 mSwitch=0 m=1 lstis=1 lnws=1 blockParametersBetween="PC sub" bentgate=0 PWORIENT=1 PLORIENT=1
MI0/I4204/T2	BL38	net952	I0/I4204/net13	vss	nfet	L=0.12U
+ W=0.28U
+ AD=0.0896P	AS=0.0504P	PD=1.2U	PS=0.64U
+ wt=2.8e-07 wf=2.8e-07 sd=0 sb=3.2e-07 sa=1.76e-06 rgatemod=1 rbodymod=0 psp=0 par=1 panw6=9.6e-15 panw5=6e-15 panw4=6e-15 panw3=6e-15 panw2=6e-15 nrs=0.93617 nrd=0.93617 ngcon=1 nf=1 mSwitch=0 m=1 lstis=1 lnws=1 blockParametersBetween="PC sub" bentgate=0 PWORIENT=1 PLORIENT=1
MI0/I4217/T5	I0/I4217/net13	I0/I4217/net049	vss	vss	nfet
+ L=0.12U	W=0.28U
+ AD=0.0504P	AS=0.0504P	PD=0.64U	PS=0.64U
+ wt=2.8e-07 wf=2.8e-07 sd=0 sb=8e-07 sa=1.28e-06 rgatemod=1 rbodymod=0 psp=0 par=1 panw6=9.6e-15 panw5=6e-15 panw4=6e-15 panw3=6e-15 panw2=6e-15 nrs=0.93617 nrd=0.93617 ngcon=1 nf=1 mSwitch=0 m=1 lstis=1 lnws=1 blockParametersBetween="PC sub" bentgate=0 PWORIENT=1 PLORIENT=1
MI0/I4217/T2	BL39	net951	I0/I4217/net13	vss	nfet	L=0.12U
+ W=0.28U
+ AD=0.0896P	AS=0.0504P	PD=1.2U	PS=0.64U
+ wt=2.8e-07 wf=2.8e-07 sd=0 sb=3.2e-07 sa=1.76e-06 rgatemod=1 rbodymod=0 psp=0 par=1 panw6=9.6e-15 panw5=6e-15 panw4=6e-15 panw3=6e-15 panw2=6e-15 nrs=0.93617 nrd=0.93617 ngcon=1 nf=1 mSwitch=0 m=1 lstis=1 lnws=1 blockParametersBetween="PC sub" bentgate=0 PWORIENT=1 PLORIENT=1
MI0/I4185/T3	I0/I4185/net049	net951	BL38bar	vss	nfet
+ L=0.12U	W=0.28U
+ AD=0.0504P	AS=0.0896P	PD=0.64U	PS=1.2U
+ wt=2.8e-07 wf=2.8e-07 sd=0 sb=1.76e-06 sa=3.2e-07 rgatemod=1 rbodymod=0 psp=0 par=1 panw6=9.6e-15 panw5=6e-15 panw4=6e-15 panw3=6e-15 panw2=6e-15 nrs=0.93617 nrd=0.93617 ngcon=1 nf=1 mSwitch=0 m=1 lstis=1 lnws=1 blockParametersBetween="PC sub" bentgate=0 PWORIENT=1 PLORIENT=1
MI0/I4185/T4	vss	I0/I4185/net13	I0/I4185/net049	vss	nfet
+ L=0.12U	W=0.28U
+ AD=0.0504P	AS=0.0504P	PD=0.64U	PS=0.64U
+ wt=2.8e-07 wf=2.8e-07 sd=0 sb=1.28e-06 sa=8e-07 rgatemod=1 rbodymod=0 psp=0 par=1 panw6=9.6e-15 panw5=6e-15 panw4=6e-15 panw3=6e-15 panw2=6e-15 nrs=0.93617 nrd=0.93617 ngcon=1 nf=1 mSwitch=0 m=1 lstis=1 lnws=1 blockParametersBetween="PC sub" bentgate=0 PWORIENT=1 PLORIENT=1
MI0/I4185/T5	I0/I4185/net13	I0/I4185/net049	vss	vss	nfet
+ L=0.12U	W=0.28U
+ AD=0.0504P	AS=0.0504P	PD=0.64U	PS=0.64U
+ wt=2.8e-07 wf=2.8e-07 sd=0 sb=8e-07 sa=1.28e-06 rgatemod=1 rbodymod=0 psp=0 par=1 panw6=9.6e-15 panw5=6e-15 panw4=6e-15 panw3=6e-15 panw2=6e-15 nrs=0.93617 nrd=0.93617 ngcon=1 nf=1 mSwitch=0 m=1 lstis=1 lnws=1 blockParametersBetween="PC sub" bentgate=0 PWORIENT=1 PLORIENT=1
MI0/I4185/T2	BL38	net951	I0/I4185/net13	vss	nfet	L=0.12U
+ W=0.28U
+ AD=0.0896P	AS=0.0504P	PD=1.2U	PS=0.64U
+ wt=2.8e-07 wf=2.8e-07 sd=0 sb=3.2e-07 sa=1.76e-06 rgatemod=1 rbodymod=0 psp=0 par=1 panw6=9.6e-15 panw5=6e-15 panw4=6e-15 panw3=6e-15 panw2=6e-15 nrs=0.93617 nrd=0.93617 ngcon=1 nf=1 mSwitch=0 m=1 lstis=1 lnws=1 blockParametersBetween="PC sub" bentgate=0 PWORIENT=1 PLORIENT=1
MI0/I4232/T5	I0/I4232/net13	I0/I4232/net049	vss	vss	nfet
+ L=0.12U	W=0.28U
+ AD=0.0504P	AS=0.0504P	PD=0.64U	PS=0.64U
+ wt=2.8e-07 wf=2.8e-07 sd=0 sb=8e-07 sa=1.28e-06 rgatemod=1 rbodymod=0 psp=0 par=1 panw6=9.6e-15 panw5=6e-15 panw4=6e-15 panw3=6e-15 panw2=6e-15 nrs=0.93617 nrd=0.93617 ngcon=1 nf=1 mSwitch=0 m=1 lstis=1 lnws=1 blockParametersBetween="PC sub" bentgate=0 PWORIENT=1 PLORIENT=1
MI0/I4232/T2	BL39	net950	I0/I4232/net13	vss	nfet	L=0.12U
+ W=0.28U
+ AD=0.0896P	AS=0.0504P	PD=1.2U	PS=0.64U
+ wt=2.8e-07 wf=2.8e-07 sd=0 sb=3.2e-07 sa=1.76e-06 rgatemod=1 rbodymod=0 psp=0 par=1 panw6=9.6e-15 panw5=6e-15 panw4=6e-15 panw3=6e-15 panw2=6e-15 nrs=0.93617 nrd=0.93617 ngcon=1 nf=1 mSwitch=0 m=1 lstis=1 lnws=1 blockParametersBetween="PC sub" bentgate=0 PWORIENT=1 PLORIENT=1
MI0/I4200/T3	I0/I4200/net049	net950	BL38bar	vss	nfet
+ L=0.12U	W=0.28U
+ AD=0.0504P	AS=0.0896P	PD=0.64U	PS=1.2U
+ wt=2.8e-07 wf=2.8e-07 sd=0 sb=1.76e-06 sa=3.2e-07 rgatemod=1 rbodymod=0 psp=0 par=1 panw6=9.6e-15 panw5=6e-15 panw4=6e-15 panw3=6e-15 panw2=6e-15 nrs=0.93617 nrd=0.93617 ngcon=1 nf=1 mSwitch=0 m=1 lstis=1 lnws=1 blockParametersBetween="PC sub" bentgate=0 PWORIENT=1 PLORIENT=1
MI0/I4200/T4	vss	I0/I4200/net13	I0/I4200/net049	vss	nfet
+ L=0.12U	W=0.28U
+ AD=0.0504P	AS=0.0504P	PD=0.64U	PS=0.64U
+ wt=2.8e-07 wf=2.8e-07 sd=0 sb=1.28e-06 sa=8e-07 rgatemod=1 rbodymod=0 psp=0 par=1 panw6=9.6e-15 panw5=6e-15 panw4=6e-15 panw3=6e-15 panw2=6e-15 nrs=0.93617 nrd=0.93617 ngcon=1 nf=1 mSwitch=0 m=1 lstis=1 lnws=1 blockParametersBetween="PC sub" bentgate=0 PWORIENT=1 PLORIENT=1
MI0/I4200/T5	I0/I4200/net13	I0/I4200/net049	vss	vss	nfet
+ L=0.12U	W=0.28U
+ AD=0.0504P	AS=0.0504P	PD=0.64U	PS=0.64U
+ wt=2.8e-07 wf=2.8e-07 sd=0 sb=8e-07 sa=1.28e-06 rgatemod=1 rbodymod=0 psp=0 par=1 panw6=9.6e-15 panw5=6e-15 panw4=6e-15 panw3=6e-15 panw2=6e-15 nrs=0.93617 nrd=0.93617 ngcon=1 nf=1 mSwitch=0 m=1 lstis=1 lnws=1 blockParametersBetween="PC sub" bentgate=0 PWORIENT=1 PLORIENT=1
MI0/I4200/T2	BL38	net950	I0/I4200/net13	vss	nfet	L=0.12U
+ W=0.28U
+ AD=0.0896P	AS=0.0504P	PD=1.2U	PS=0.64U
+ wt=2.8e-07 wf=2.8e-07 sd=0 sb=3.2e-07 sa=1.76e-06 rgatemod=1 rbodymod=0 psp=0 par=1 panw6=9.6e-15 panw5=6e-15 panw4=6e-15 panw3=6e-15 panw2=6e-15 nrs=0.93617 nrd=0.93617 ngcon=1 nf=1 mSwitch=0 m=1 lstis=1 lnws=1 blockParametersBetween="PC sub" bentgate=0 PWORIENT=1 PLORIENT=1
MI0/I4230/T5	I0/I4230/net13	I0/I4230/net049	vss	vss	nfet
+ L=0.12U	W=0.28U
+ AD=0.0504P	AS=0.0504P	PD=0.64U	PS=0.64U
+ wt=2.8e-07 wf=2.8e-07 sd=0 sb=8e-07 sa=1.28e-06 rgatemod=1 rbodymod=0 psp=0 par=1 panw6=9.6e-15 panw5=6e-15 panw4=6e-15 panw3=6e-15 panw2=6e-15 nrs=0.93617 nrd=0.93617 ngcon=1 nf=1 mSwitch=0 m=1 lstis=1 lnws=1 blockParametersBetween="PC sub" bentgate=0 PWORIENT=1 PLORIENT=1
MI0/I4230/T2	BL39	net949	I0/I4230/net13	vss	nfet	L=0.12U
+ W=0.28U
+ AD=0.0896P	AS=0.0504P	PD=1.2U	PS=0.64U
+ wt=2.8e-07 wf=2.8e-07 sd=0 sb=3.2e-07 sa=1.76e-06 rgatemod=1 rbodymod=0 psp=0 par=1 panw6=9.6e-15 panw5=6e-15 panw4=6e-15 panw3=6e-15 panw2=6e-15 nrs=0.93617 nrd=0.93617 ngcon=1 nf=1 mSwitch=0 m=1 lstis=1 lnws=1 blockParametersBetween="PC sub" bentgate=0 PWORIENT=1 PLORIENT=1
MI0/I4198/T3	I0/I4198/net049	net949	BL38bar	vss	nfet
+ L=0.12U	W=0.28U
+ AD=0.0504P	AS=0.0896P	PD=0.64U	PS=1.2U
+ wt=2.8e-07 wf=2.8e-07 sd=0 sb=1.76e-06 sa=3.2e-07 rgatemod=1 rbodymod=0 psp=0 par=1 panw6=9.6e-15 panw5=6e-15 panw4=6e-15 panw3=6e-15 panw2=6e-15 nrs=0.93617 nrd=0.93617 ngcon=1 nf=1 mSwitch=0 m=1 lstis=1 lnws=1 blockParametersBetween="PC sub" bentgate=0 PWORIENT=1 PLORIENT=1
MI0/I4198/T4	vss	I0/I4198/net13	I0/I4198/net049	vss	nfet
+ L=0.12U	W=0.28U
+ AD=0.0504P	AS=0.0504P	PD=0.64U	PS=0.64U
+ wt=2.8e-07 wf=2.8e-07 sd=0 sb=1.28e-06 sa=8e-07 rgatemod=1 rbodymod=0 psp=0 par=1 panw6=9.6e-15 panw5=6e-15 panw4=6e-15 panw3=6e-15 panw2=6e-15 nrs=0.93617 nrd=0.93617 ngcon=1 nf=1 mSwitch=0 m=1 lstis=1 lnws=1 blockParametersBetween="PC sub" bentgate=0 PWORIENT=1 PLORIENT=1
MI0/I4198/T5	I0/I4198/net13	I0/I4198/net049	vss	vss	nfet
+ L=0.12U	W=0.28U
+ AD=0.0504P	AS=0.0504P	PD=0.64U	PS=0.64U
+ wt=2.8e-07 wf=2.8e-07 sd=0 sb=8e-07 sa=1.28e-06 rgatemod=1 rbodymod=0 psp=0 par=1 panw6=9.6e-15 panw5=6e-15 panw4=6e-15 panw3=6e-15 panw2=6e-15 nrs=0.93617 nrd=0.93617 ngcon=1 nf=1 mSwitch=0 m=1 lstis=1 lnws=1 blockParametersBetween="PC sub" bentgate=0 PWORIENT=1 PLORIENT=1
MI0/I4198/T2	BL38	net949	I0/I4198/net13	vss	nfet	L=0.12U
+ W=0.28U
+ AD=0.0896P	AS=0.0504P	PD=1.2U	PS=0.64U
+ wt=2.8e-07 wf=2.8e-07 sd=0 sb=3.2e-07 sa=1.76e-06 rgatemod=1 rbodymod=0 psp=0 par=1 panw6=9.6e-15 panw5=6e-15 panw4=6e-15 panw3=6e-15 panw2=6e-15 nrs=0.93617 nrd=0.93617 ngcon=1 nf=1 mSwitch=0 m=1 lstis=1 lnws=1 blockParametersBetween="PC sub" bentgate=0 PWORIENT=1 PLORIENT=1
MI0/I4226/T5	I0/I4226/net13	I0/I4226/net049	vss	vss	nfet
+ L=0.12U	W=0.28U
+ AD=0.0504P	AS=0.0504P	PD=0.64U	PS=0.64U
+ wt=2.8e-07 wf=2.8e-07 sd=0 sb=8e-07 sa=1.28e-06 rgatemod=1 rbodymod=0 psp=0 par=1 panw6=9.6e-15 panw5=6e-15 panw4=6e-15 panw3=6e-15 panw2=6e-15 nrs=0.93617 nrd=0.93617 ngcon=1 nf=1 mSwitch=0 m=1 lstis=1 lnws=1 blockParametersBetween="PC sub" bentgate=0 PWORIENT=1 PLORIENT=1
MI0/I4226/T2	BL39	net948	I0/I4226/net13	vss	nfet	L=0.12U
+ W=0.28U
+ AD=0.0896P	AS=0.0504P	PD=1.2U	PS=0.64U
+ wt=2.8e-07 wf=2.8e-07 sd=0 sb=3.2e-07 sa=1.76e-06 rgatemod=1 rbodymod=0 psp=0 par=1 panw6=9.6e-15 panw5=6e-15 panw4=6e-15 panw3=6e-15 panw2=6e-15 nrs=0.93617 nrd=0.93617 ngcon=1 nf=1 mSwitch=0 m=1 lstis=1 lnws=1 blockParametersBetween="PC sub" bentgate=0 PWORIENT=1 PLORIENT=1
MI0/I4194/T3	I0/I4194/net049	net948	BL38bar	vss	nfet
+ L=0.12U	W=0.28U
+ AD=0.0504P	AS=0.0896P	PD=0.64U	PS=1.2U
+ wt=2.8e-07 wf=2.8e-07 sd=0 sb=1.76e-06 sa=3.2e-07 rgatemod=1 rbodymod=0 psp=0 par=1 panw6=9.6e-15 panw5=6e-15 panw4=6e-15 panw3=6e-15 panw2=6e-15 nrs=0.93617 nrd=0.93617 ngcon=1 nf=1 mSwitch=0 m=1 lstis=1 lnws=1 blockParametersBetween="PC sub" bentgate=0 PWORIENT=1 PLORIENT=1
MI0/I4194/T4	vss	I0/I4194/net13	I0/I4194/net049	vss	nfet
+ L=0.12U	W=0.28U
+ AD=0.0504P	AS=0.0504P	PD=0.64U	PS=0.64U
+ wt=2.8e-07 wf=2.8e-07 sd=0 sb=1.28e-06 sa=8e-07 rgatemod=1 rbodymod=0 psp=0 par=1 panw6=9.6e-15 panw5=6e-15 panw4=6e-15 panw3=6e-15 panw2=6e-15 nrs=0.93617 nrd=0.93617 ngcon=1 nf=1 mSwitch=0 m=1 lstis=1 lnws=1 blockParametersBetween="PC sub" bentgate=0 PWORIENT=1 PLORIENT=1
MI0/I4194/T5	I0/I4194/net13	I0/I4194/net049	vss	vss	nfet
+ L=0.12U	W=0.28U
+ AD=0.0504P	AS=0.0504P	PD=0.64U	PS=0.64U
+ wt=2.8e-07 wf=2.8e-07 sd=0 sb=8e-07 sa=1.28e-06 rgatemod=1 rbodymod=0 psp=0 par=1 panw6=9.6e-15 panw5=6e-15 panw4=6e-15 panw3=6e-15 panw2=6e-15 nrs=0.93617 nrd=0.93617 ngcon=1 nf=1 mSwitch=0 m=1 lstis=1 lnws=1 blockParametersBetween="PC sub" bentgate=0 PWORIENT=1 PLORIENT=1
MI0/I4194/T2	BL38	net948	I0/I4194/net13	vss	nfet	L=0.12U
+ W=0.28U
+ AD=0.0896P	AS=0.0504P	PD=1.2U	PS=0.64U
+ wt=2.8e-07 wf=2.8e-07 sd=0 sb=3.2e-07 sa=1.76e-06 rgatemod=1 rbodymod=0 psp=0 par=1 panw6=9.6e-15 panw5=6e-15 panw4=6e-15 panw3=6e-15 panw2=6e-15 nrs=0.93617 nrd=0.93617 ngcon=1 nf=1 mSwitch=0 m=1 lstis=1 lnws=1 blockParametersBetween="PC sub" bentgate=0 PWORIENT=1 PLORIENT=1
MI0/I4218/T5	I0/I4218/net13	I0/I4218/net049	vss	vss	nfet
+ L=0.12U	W=0.28U
+ AD=0.0504P	AS=0.0504P	PD=0.64U	PS=0.64U
+ wt=2.8e-07 wf=2.8e-07 sd=0 sb=8e-07 sa=1.28e-06 rgatemod=1 rbodymod=0 psp=0 par=1 panw6=9.6e-15 panw5=6e-15 panw4=6e-15 panw3=6e-15 panw2=6e-15 nrs=0.93617 nrd=0.93617 ngcon=1 nf=1 mSwitch=0 m=1 lstis=1 lnws=1 blockParametersBetween="PC sub" bentgate=0 PWORIENT=1 PLORIENT=1
MI0/I4218/T2	BL39	net947	I0/I4218/net13	vss	nfet	L=0.12U
+ W=0.28U
+ AD=0.0896P	AS=0.0504P	PD=1.2U	PS=0.64U
+ wt=2.8e-07 wf=2.8e-07 sd=0 sb=3.2e-07 sa=1.76e-06 rgatemod=1 rbodymod=0 psp=0 par=1 panw6=9.6e-15 panw5=6e-15 panw4=6e-15 panw3=6e-15 panw2=6e-15 nrs=0.93617 nrd=0.93617 ngcon=1 nf=1 mSwitch=0 m=1 lstis=1 lnws=1 blockParametersBetween="PC sub" bentgate=0 PWORIENT=1 PLORIENT=1
MI0/I4186/T3	I0/I4186/net049	net947	BL38bar	vss	nfet
+ L=0.12U	W=0.28U
+ AD=0.0504P	AS=0.0896P	PD=0.64U	PS=1.2U
+ wt=2.8e-07 wf=2.8e-07 sd=0 sb=1.76e-06 sa=3.2e-07 rgatemod=1 rbodymod=0 psp=0 par=1 panw6=9.6e-15 panw5=6e-15 panw4=6e-15 panw3=6e-15 panw2=6e-15 nrs=0.93617 nrd=0.93617 ngcon=1 nf=1 mSwitch=0 m=1 lstis=1 lnws=1 blockParametersBetween="PC sub" bentgate=0 PWORIENT=1 PLORIENT=1
MI0/I4186/T4	vss	I0/I4186/net13	I0/I4186/net049	vss	nfet
+ L=0.12U	W=0.28U
+ AD=0.0504P	AS=0.0504P	PD=0.64U	PS=0.64U
+ wt=2.8e-07 wf=2.8e-07 sd=0 sb=1.28e-06 sa=8e-07 rgatemod=1 rbodymod=0 psp=0 par=1 panw6=9.6e-15 panw5=6e-15 panw4=6e-15 panw3=6e-15 panw2=6e-15 nrs=0.93617 nrd=0.93617 ngcon=1 nf=1 mSwitch=0 m=1 lstis=1 lnws=1 blockParametersBetween="PC sub" bentgate=0 PWORIENT=1 PLORIENT=1
MI0/I4186/T5	I0/I4186/net13	I0/I4186/net049	vss	vss	nfet
+ L=0.12U	W=0.28U
+ AD=0.0504P	AS=0.0504P	PD=0.64U	PS=0.64U
+ wt=2.8e-07 wf=2.8e-07 sd=0 sb=8e-07 sa=1.28e-06 rgatemod=1 rbodymod=0 psp=0 par=1 panw6=9.6e-15 panw5=6e-15 panw4=6e-15 panw3=6e-15 panw2=6e-15 nrs=0.93617 nrd=0.93617 ngcon=1 nf=1 mSwitch=0 m=1 lstis=1 lnws=1 blockParametersBetween="PC sub" bentgate=0 PWORIENT=1 PLORIENT=1
MI0/I4186/T2	BL38	net947	I0/I4186/net13	vss	nfet	L=0.12U
+ W=0.28U
+ AD=0.0896P	AS=0.0504P	PD=1.2U	PS=0.64U
+ wt=2.8e-07 wf=2.8e-07 sd=0 sb=3.2e-07 sa=1.76e-06 rgatemod=1 rbodymod=0 psp=0 par=1 panw6=9.6e-15 panw5=6e-15 panw4=6e-15 panw3=6e-15 panw2=6e-15 nrs=0.93617 nrd=0.93617 ngcon=1 nf=1 mSwitch=0 m=1 lstis=1 lnws=1 blockParametersBetween="PC sub" bentgate=0 PWORIENT=1 PLORIENT=1
MI0/I4059/T2	BL36	net946	I0/I4059/net13	vss	nfet	L=0.12U
+ W=0.28U
+ AD=0.0896P	AS=0.0504P	PD=1.2U	PS=0.64U
+ wt=2.8e-07 wf=2.8e-07 sd=0 sb=3.2e-07 sa=1.76e-06 rgatemod=1 rbodymod=0 psp=0 par=1 panw6=9.6e-15 panw5=6e-15 panw4=6e-15 panw3=6e-15 panw2=6e-15 nrs=0.93617 nrd=0.93617 ngcon=1 nf=1 mSwitch=0 m=1 lstis=1 lnws=1 blockParametersBetween="PC sub" bentgate=0 PWORIENT=1 PLORIENT=1
MI0/I4049/T2	BL36	net945	I0/I4049/net13	vss	nfet	L=0.12U
+ W=0.28U
+ AD=0.0896P	AS=0.0504P	PD=1.2U	PS=0.64U
+ wt=2.8e-07 wf=2.8e-07 sd=0 sb=3.2e-07 sa=1.76e-06 rgatemod=1 rbodymod=0 psp=0 par=1 panw6=9.6e-15 panw5=6e-15 panw4=6e-15 panw3=6e-15 panw2=6e-15 nrs=0.93617 nrd=0.93617 ngcon=1 nf=1 mSwitch=0 m=1 lstis=1 lnws=1 blockParametersBetween="PC sub" bentgate=0 PWORIENT=1 PLORIENT=1
MI0/I4075/T2	BL36	net944	I0/I4075/net13	vss	nfet	L=0.12U
+ W=0.28U
+ AD=0.0896P	AS=0.0504P	PD=1.2U	PS=0.64U
+ wt=2.8e-07 wf=2.8e-07 sd=0 sb=3.2e-07 sa=1.76e-06 rgatemod=1 rbodymod=0 psp=0 par=1 panw6=9.6e-15 panw5=6e-15 panw4=6e-15 panw3=6e-15 panw2=6e-15 nrs=0.93617 nrd=0.93617 ngcon=1 nf=1 mSwitch=0 m=1 lstis=1 lnws=1 blockParametersBetween="PC sub" bentgate=0 PWORIENT=1 PLORIENT=1
MI0/I4069/T2	BL36	net943	I0/I4069/net13	vss	nfet	L=0.12U
+ W=0.28U
+ AD=0.0896P	AS=0.0504P	PD=1.2U	PS=0.64U
+ wt=2.8e-07 wf=2.8e-07 sd=0 sb=3.2e-07 sa=1.76e-06 rgatemod=1 rbodymod=0 psp=0 par=1 panw6=9.6e-15 panw5=6e-15 panw4=6e-15 panw3=6e-15 panw2=6e-15 nrs=0.93617 nrd=0.93617 ngcon=1 nf=1 mSwitch=0 m=1 lstis=1 lnws=1 blockParametersBetween="PC sub" bentgate=0 PWORIENT=1 PLORIENT=1
MI0/I4055/T2	BL36	net942	I0/I4055/net13	vss	nfet	L=0.12U
+ W=0.28U
+ AD=0.0896P	AS=0.0504P	PD=1.2U	PS=0.64U
+ wt=2.8e-07 wf=2.8e-07 sd=0 sb=3.2e-07 sa=1.76e-06 rgatemod=1 rbodymod=0 psp=0 par=1 panw6=9.6e-15 panw5=6e-15 panw4=6e-15 panw3=6e-15 panw2=6e-15 nrs=0.93617 nrd=0.93617 ngcon=1 nf=1 mSwitch=0 m=1 lstis=1 lnws=1 blockParametersBetween="PC sub" bentgate=0 PWORIENT=1 PLORIENT=1
MI0/I4048/T2	BL36	net941	I0/I4048/net13	vss	nfet	L=0.12U
+ W=0.28U
+ AD=0.0896P	AS=0.0504P	PD=1.2U	PS=0.64U
+ wt=2.8e-07 wf=2.8e-07 sd=0 sb=3.2e-07 sa=1.76e-06 rgatemod=1 rbodymod=0 psp=0 par=1 panw6=9.6e-15 panw5=6e-15 panw4=6e-15 panw3=6e-15 panw2=6e-15 nrs=0.93617 nrd=0.93617 ngcon=1 nf=1 mSwitch=0 m=1 lstis=1 lnws=1 blockParametersBetween="PC sub" bentgate=0 PWORIENT=1 PLORIENT=1
MI0/I4071/T2	BL36	net940	I0/I4071/net13	vss	nfet	L=0.12U
+ W=0.28U
+ AD=0.0896P	AS=0.0504P	PD=1.2U	PS=0.64U
+ wt=2.8e-07 wf=2.8e-07 sd=0 sb=3.2e-07 sa=1.76e-06 rgatemod=1 rbodymod=0 psp=0 par=1 panw6=9.6e-15 panw5=6e-15 panw4=6e-15 panw3=6e-15 panw2=6e-15 nrs=0.93617 nrd=0.93617 ngcon=1 nf=1 mSwitch=0 m=1 lstis=1 lnws=1 blockParametersBetween="PC sub" bentgate=0 PWORIENT=1 PLORIENT=1
MI0/I4068/T2	BL36	net939	I0/I4068/net13	vss	nfet	L=0.12U
+ W=0.28U
+ AD=0.0896P	AS=0.0504P	PD=1.2U	PS=0.64U
+ wt=2.8e-07 wf=2.8e-07 sd=0 sb=3.2e-07 sa=1.76e-06 rgatemod=1 rbodymod=0 psp=0 par=1 panw6=9.6e-15 panw5=6e-15 panw4=6e-15 panw3=6e-15 panw2=6e-15 nrs=0.93617 nrd=0.93617 ngcon=1 nf=1 mSwitch=0 m=1 lstis=1 lnws=1 blockParametersBetween="PC sub" bentgate=0 PWORIENT=1 PLORIENT=1
MI0/I4046/T2	BL36	net938	I0/I4046/net13	vss	nfet	L=0.12U
+ W=0.28U
+ AD=0.0896P	AS=0.0504P	PD=1.2U	PS=0.64U
+ wt=2.8e-07 wf=2.8e-07 sd=0 sb=3.2e-07 sa=1.76e-06 rgatemod=1 rbodymod=0 psp=0 par=1 panw6=9.6e-15 panw5=6e-15 panw4=6e-15 panw3=6e-15 panw2=6e-15 nrs=0.93617 nrd=0.93617 ngcon=1 nf=1 mSwitch=0 m=1 lstis=1 lnws=1 blockParametersBetween="PC sub" bentgate=0 PWORIENT=1 PLORIENT=1
MI0/I4059/T5	I0/I4059/net13	I0/I4059/net049	vss	vss	nfet
+ L=0.12U	W=0.28U
+ AD=0.0504P	AS=0.0504P	PD=0.64U	PS=0.64U
+ wt=2.8e-07 wf=2.8e-07 sd=0 sb=8e-07 sa=1.28e-06 rgatemod=1 rbodymod=0 psp=0 par=1 panw6=9.6e-15 panw5=6e-15 panw4=6e-15 panw3=6e-15 panw2=6e-15 nrs=0.93617 nrd=0.93617 ngcon=1 nf=1 mSwitch=0 m=1 lstis=1 lnws=1 blockParametersBetween="PC sub" bentgate=0 PWORIENT=1 PLORIENT=1
MI0/I4049/T5	I0/I4049/net13	I0/I4049/net049	vss	vss	nfet
+ L=0.12U	W=0.28U
+ AD=0.0504P	AS=0.0504P	PD=0.64U	PS=0.64U
+ wt=2.8e-07 wf=2.8e-07 sd=0 sb=8e-07 sa=1.28e-06 rgatemod=1 rbodymod=0 psp=0 par=1 panw6=9.6e-15 panw5=6e-15 panw4=6e-15 panw3=6e-15 panw2=6e-15 nrs=0.93617 nrd=0.93617 ngcon=1 nf=1 mSwitch=0 m=1 lstis=1 lnws=1 blockParametersBetween="PC sub" bentgate=0 PWORIENT=1 PLORIENT=1
MI0/I4075/T5	I0/I4075/net13	I0/I4075/net049	vss	vss	nfet
+ L=0.12U	W=0.28U
+ AD=0.0504P	AS=0.0504P	PD=0.64U	PS=0.64U
+ wt=2.8e-07 wf=2.8e-07 sd=0 sb=8e-07 sa=1.28e-06 rgatemod=1 rbodymod=0 psp=0 par=1 panw6=9.6e-15 panw5=6e-15 panw4=6e-15 panw3=6e-15 panw2=6e-15 nrs=0.93617 nrd=0.93617 ngcon=1 nf=1 mSwitch=0 m=1 lstis=1 lnws=1 blockParametersBetween="PC sub" bentgate=0 PWORIENT=1 PLORIENT=1
MI0/I4069/T5	I0/I4069/net13	I0/I4069/net049	vss	vss	nfet
+ L=0.12U	W=0.28U
+ AD=0.0504P	AS=0.0504P	PD=0.64U	PS=0.64U
+ wt=2.8e-07 wf=2.8e-07 sd=0 sb=8e-07 sa=1.28e-06 rgatemod=1 rbodymod=0 psp=0 par=1 panw6=9.6e-15 panw5=6e-15 panw4=6e-15 panw3=6e-15 panw2=6e-15 nrs=0.93617 nrd=0.93617 ngcon=1 nf=1 mSwitch=0 m=1 lstis=1 lnws=1 blockParametersBetween="PC sub" bentgate=0 PWORIENT=1 PLORIENT=1
MI0/I4055/T5	I0/I4055/net13	I0/I4055/net049	vss	vss	nfet
+ L=0.12U	W=0.28U
+ AD=0.0504P	AS=0.0504P	PD=0.64U	PS=0.64U
+ wt=2.8e-07 wf=2.8e-07 sd=0 sb=8e-07 sa=1.28e-06 rgatemod=1 rbodymod=0 psp=0 par=1 panw6=9.6e-15 panw5=6e-15 panw4=6e-15 panw3=6e-15 panw2=6e-15 nrs=0.93617 nrd=0.93617 ngcon=1 nf=1 mSwitch=0 m=1 lstis=1 lnws=1 blockParametersBetween="PC sub" bentgate=0 PWORIENT=1 PLORIENT=1
MI0/I4048/T5	I0/I4048/net13	I0/I4048/net049	vss	vss	nfet
+ L=0.12U	W=0.28U
+ AD=0.0504P	AS=0.0504P	PD=0.64U	PS=0.64U
+ wt=2.8e-07 wf=2.8e-07 sd=0 sb=8e-07 sa=1.28e-06 rgatemod=1 rbodymod=0 psp=0 par=1 panw6=9.6e-15 panw5=6e-15 panw4=6e-15 panw3=6e-15 panw2=6e-15 nrs=0.93617 nrd=0.93617 ngcon=1 nf=1 mSwitch=0 m=1 lstis=1 lnws=1 blockParametersBetween="PC sub" bentgate=0 PWORIENT=1 PLORIENT=1
MI0/I4071/T5	I0/I4071/net13	I0/I4071/net049	vss	vss	nfet
+ L=0.12U	W=0.28U
+ AD=0.0504P	AS=0.0504P	PD=0.64U	PS=0.64U
+ wt=2.8e-07 wf=2.8e-07 sd=0 sb=8e-07 sa=1.28e-06 rgatemod=1 rbodymod=0 psp=0 par=1 panw6=9.6e-15 panw5=6e-15 panw4=6e-15 panw3=6e-15 panw2=6e-15 nrs=0.93617 nrd=0.93617 ngcon=1 nf=1 mSwitch=0 m=1 lstis=1 lnws=1 blockParametersBetween="PC sub" bentgate=0 PWORIENT=1 PLORIENT=1
MI0/I4068/T5	I0/I4068/net13	I0/I4068/net049	vss	vss	nfet
+ L=0.12U	W=0.28U
+ AD=0.0504P	AS=0.0504P	PD=0.64U	PS=0.64U
+ wt=2.8e-07 wf=2.8e-07 sd=0 sb=8e-07 sa=1.28e-06 rgatemod=1 rbodymod=0 psp=0 par=1 panw6=9.6e-15 panw5=6e-15 panw4=6e-15 panw3=6e-15 panw2=6e-15 nrs=0.93617 nrd=0.93617 ngcon=1 nf=1 mSwitch=0 m=1 lstis=1 lnws=1 blockParametersBetween="PC sub" bentgate=0 PWORIENT=1 PLORIENT=1
MI0/I4046/T5	I0/I4046/net13	I0/I4046/net049	vss	vss	nfet
+ L=0.12U	W=0.28U
+ AD=0.0504P	AS=0.0504P	PD=0.64U	PS=0.64U
+ wt=2.8e-07 wf=2.8e-07 sd=0 sb=8e-07 sa=1.28e-06 rgatemod=1 rbodymod=0 psp=0 par=1 panw6=9.6e-15 panw5=6e-15 panw4=6e-15 panw3=6e-15 panw2=6e-15 nrs=0.93617 nrd=0.93617 ngcon=1 nf=1 mSwitch=0 m=1 lstis=1 lnws=1 blockParametersBetween="PC sub" bentgate=0 PWORIENT=1 PLORIENT=1
MI0/I4059/T4	vss	I0/I4059/net13	I0/I4059/net049	vss	nfet
+ L=0.12U	W=0.28U
+ AD=0.0504P	AS=0.0504P	PD=0.64U	PS=0.64U
+ wt=2.8e-07 wf=2.8e-07 sd=0 sb=1.28e-06 sa=8e-07 rgatemod=1 rbodymod=0 psp=0 par=1 panw6=9.6e-15 panw5=6e-15 panw4=6e-15 panw3=6e-15 panw2=6e-15 nrs=0.93617 nrd=0.93617 ngcon=1 nf=1 mSwitch=0 m=1 lstis=1 lnws=1 blockParametersBetween="PC sub" bentgate=0 PWORIENT=1 PLORIENT=1
MI0/I4049/T4	vss	I0/I4049/net13	I0/I4049/net049	vss	nfet
+ L=0.12U	W=0.28U
+ AD=0.0504P	AS=0.0504P	PD=0.64U	PS=0.64U
+ wt=2.8e-07 wf=2.8e-07 sd=0 sb=1.28e-06 sa=8e-07 rgatemod=1 rbodymod=0 psp=0 par=1 panw6=9.6e-15 panw5=6e-15 panw4=6e-15 panw3=6e-15 panw2=6e-15 nrs=0.93617 nrd=0.93617 ngcon=1 nf=1 mSwitch=0 m=1 lstis=1 lnws=1 blockParametersBetween="PC sub" bentgate=0 PWORIENT=1 PLORIENT=1
MI0/I4075/T4	vss	I0/I4075/net13	I0/I4075/net049	vss	nfet
+ L=0.12U	W=0.28U
+ AD=0.0504P	AS=0.0504P	PD=0.64U	PS=0.64U
+ wt=2.8e-07 wf=2.8e-07 sd=0 sb=1.28e-06 sa=8e-07 rgatemod=1 rbodymod=0 psp=0 par=1 panw6=9.6e-15 panw5=6e-15 panw4=6e-15 panw3=6e-15 panw2=6e-15 nrs=0.93617 nrd=0.93617 ngcon=1 nf=1 mSwitch=0 m=1 lstis=1 lnws=1 blockParametersBetween="PC sub" bentgate=0 PWORIENT=1 PLORIENT=1
MI0/I4069/T4	vss	I0/I4069/net13	I0/I4069/net049	vss	nfet
+ L=0.12U	W=0.28U
+ AD=0.0504P	AS=0.0504P	PD=0.64U	PS=0.64U
+ wt=2.8e-07 wf=2.8e-07 sd=0 sb=1.28e-06 sa=8e-07 rgatemod=1 rbodymod=0 psp=0 par=1 panw6=9.6e-15 panw5=6e-15 panw4=6e-15 panw3=6e-15 panw2=6e-15 nrs=0.93617 nrd=0.93617 ngcon=1 nf=1 mSwitch=0 m=1 lstis=1 lnws=1 blockParametersBetween="PC sub" bentgate=0 PWORIENT=1 PLORIENT=1
MI0/I4055/T4	vss	I0/I4055/net13	I0/I4055/net049	vss	nfet
+ L=0.12U	W=0.28U
+ AD=0.0504P	AS=0.0504P	PD=0.64U	PS=0.64U
+ wt=2.8e-07 wf=2.8e-07 sd=0 sb=1.28e-06 sa=8e-07 rgatemod=1 rbodymod=0 psp=0 par=1 panw6=9.6e-15 panw5=6e-15 panw4=6e-15 panw3=6e-15 panw2=6e-15 nrs=0.93617 nrd=0.93617 ngcon=1 nf=1 mSwitch=0 m=1 lstis=1 lnws=1 blockParametersBetween="PC sub" bentgate=0 PWORIENT=1 PLORIENT=1
MI0/I4048/T4	vss	I0/I4048/net13	I0/I4048/net049	vss	nfet
+ L=0.12U	W=0.28U
+ AD=0.0504P	AS=0.0504P	PD=0.64U	PS=0.64U
+ wt=2.8e-07 wf=2.8e-07 sd=0 sb=1.28e-06 sa=8e-07 rgatemod=1 rbodymod=0 psp=0 par=1 panw6=9.6e-15 panw5=6e-15 panw4=6e-15 panw3=6e-15 panw2=6e-15 nrs=0.93617 nrd=0.93617 ngcon=1 nf=1 mSwitch=0 m=1 lstis=1 lnws=1 blockParametersBetween="PC sub" bentgate=0 PWORIENT=1 PLORIENT=1
MI0/I4071/T4	vss	I0/I4071/net13	I0/I4071/net049	vss	nfet
+ L=0.12U	W=0.28U
+ AD=0.0504P	AS=0.0504P	PD=0.64U	PS=0.64U
+ wt=2.8e-07 wf=2.8e-07 sd=0 sb=1.28e-06 sa=8e-07 rgatemod=1 rbodymod=0 psp=0 par=1 panw6=9.6e-15 panw5=6e-15 panw4=6e-15 panw3=6e-15 panw2=6e-15 nrs=0.93617 nrd=0.93617 ngcon=1 nf=1 mSwitch=0 m=1 lstis=1 lnws=1 blockParametersBetween="PC sub" bentgate=0 PWORIENT=1 PLORIENT=1
MI0/I4068/T4	vss	I0/I4068/net13	I0/I4068/net049	vss	nfet
+ L=0.12U	W=0.28U
+ AD=0.0504P	AS=0.0504P	PD=0.64U	PS=0.64U
+ wt=2.8e-07 wf=2.8e-07 sd=0 sb=1.28e-06 sa=8e-07 rgatemod=1 rbodymod=0 psp=0 par=1 panw6=9.6e-15 panw5=6e-15 panw4=6e-15 panw3=6e-15 panw2=6e-15 nrs=0.93617 nrd=0.93617 ngcon=1 nf=1 mSwitch=0 m=1 lstis=1 lnws=1 blockParametersBetween="PC sub" bentgate=0 PWORIENT=1 PLORIENT=1
MI0/I4046/T4	vss	I0/I4046/net13	I0/I4046/net049	vss	nfet
+ L=0.12U	W=0.28U
+ AD=0.0504P	AS=0.0504P	PD=0.64U	PS=0.64U
+ wt=2.8e-07 wf=2.8e-07 sd=0 sb=1.28e-06 sa=8e-07 rgatemod=1 rbodymod=0 psp=0 par=1 panw6=9.6e-15 panw5=6e-15 panw4=6e-15 panw3=6e-15 panw2=6e-15 nrs=0.93617 nrd=0.93617 ngcon=1 nf=1 mSwitch=0 m=1 lstis=1 lnws=1 blockParametersBetween="PC sub" bentgate=0 PWORIENT=1 PLORIENT=1
MI0/I4059/T3	I0/I4059/net049	net946	BL36bar	vss	nfet
+ L=0.12U	W=0.28U
+ AD=0.0504P	AS=0.0896P	PD=0.64U	PS=1.2U
+ wt=2.8e-07 wf=2.8e-07 sd=0 sb=1.76e-06 sa=3.2e-07 rgatemod=1 rbodymod=0 psp=0 par=1 panw6=9.6e-15 panw5=6e-15 panw4=6e-15 panw3=6e-15 panw2=6e-15 nrs=0.93617 nrd=0.93617 ngcon=1 nf=1 mSwitch=0 m=1 lstis=1 lnws=1 blockParametersBetween="PC sub" bentgate=0 PWORIENT=1 PLORIENT=1
MI0/I4049/T3	I0/I4049/net049	net945	BL36bar	vss	nfet
+ L=0.12U	W=0.28U
+ AD=0.0504P	AS=0.0896P	PD=0.64U	PS=1.2U
+ wt=2.8e-07 wf=2.8e-07 sd=0 sb=1.76e-06 sa=3.2e-07 rgatemod=1 rbodymod=0 psp=0 par=1 panw6=9.6e-15 panw5=6e-15 panw4=6e-15 panw3=6e-15 panw2=6e-15 nrs=0.93617 nrd=0.93617 ngcon=1 nf=1 mSwitch=0 m=1 lstis=1 lnws=1 blockParametersBetween="PC sub" bentgate=0 PWORIENT=1 PLORIENT=1
MI0/I4075/T3	I0/I4075/net049	net944	BL36bar	vss	nfet
+ L=0.12U	W=0.28U
+ AD=0.0504P	AS=0.0896P	PD=0.64U	PS=1.2U
+ wt=2.8e-07 wf=2.8e-07 sd=0 sb=1.76e-06 sa=3.2e-07 rgatemod=1 rbodymod=0 psp=0 par=1 panw6=9.6e-15 panw5=6e-15 panw4=6e-15 panw3=6e-15 panw2=6e-15 nrs=0.93617 nrd=0.93617 ngcon=1 nf=1 mSwitch=0 m=1 lstis=1 lnws=1 blockParametersBetween="PC sub" bentgate=0 PWORIENT=1 PLORIENT=1
MI0/I4069/T3	I0/I4069/net049	net943	BL36bar	vss	nfet
+ L=0.12U	W=0.28U
+ AD=0.0504P	AS=0.0896P	PD=0.64U	PS=1.2U
+ wt=2.8e-07 wf=2.8e-07 sd=0 sb=1.76e-06 sa=3.2e-07 rgatemod=1 rbodymod=0 psp=0 par=1 panw6=9.6e-15 panw5=6e-15 panw4=6e-15 panw3=6e-15 panw2=6e-15 nrs=0.93617 nrd=0.93617 ngcon=1 nf=1 mSwitch=0 m=1 lstis=1 lnws=1 blockParametersBetween="PC sub" bentgate=0 PWORIENT=1 PLORIENT=1
MI0/I4055/T3	I0/I4055/net049	net942	BL36bar	vss	nfet
+ L=0.12U	W=0.28U
+ AD=0.0504P	AS=0.0896P	PD=0.64U	PS=1.2U
+ wt=2.8e-07 wf=2.8e-07 sd=0 sb=1.76e-06 sa=3.2e-07 rgatemod=1 rbodymod=0 psp=0 par=1 panw6=9.6e-15 panw5=6e-15 panw4=6e-15 panw3=6e-15 panw2=6e-15 nrs=0.93617 nrd=0.93617 ngcon=1 nf=1 mSwitch=0 m=1 lstis=1 lnws=1 blockParametersBetween="PC sub" bentgate=0 PWORIENT=1 PLORIENT=1
MI0/I4048/T3	I0/I4048/net049	net941	BL36bar	vss	nfet
+ L=0.12U	W=0.28U
+ AD=0.0504P	AS=0.0896P	PD=0.64U	PS=1.2U
+ wt=2.8e-07 wf=2.8e-07 sd=0 sb=1.76e-06 sa=3.2e-07 rgatemod=1 rbodymod=0 psp=0 par=1 panw6=9.6e-15 panw5=6e-15 panw4=6e-15 panw3=6e-15 panw2=6e-15 nrs=0.93617 nrd=0.93617 ngcon=1 nf=1 mSwitch=0 m=1 lstis=1 lnws=1 blockParametersBetween="PC sub" bentgate=0 PWORIENT=1 PLORIENT=1
MI0/I4071/T3	I0/I4071/net049	net940	BL36bar	vss	nfet
+ L=0.12U	W=0.28U
+ AD=0.0504P	AS=0.0896P	PD=0.64U	PS=1.2U
+ wt=2.8e-07 wf=2.8e-07 sd=0 sb=1.76e-06 sa=3.2e-07 rgatemod=1 rbodymod=0 psp=0 par=1 panw6=9.6e-15 panw5=6e-15 panw4=6e-15 panw3=6e-15 panw2=6e-15 nrs=0.93617 nrd=0.93617 ngcon=1 nf=1 mSwitch=0 m=1 lstis=1 lnws=1 blockParametersBetween="PC sub" bentgate=0 PWORIENT=1 PLORIENT=1
MI0/I4068/T3	I0/I4068/net049	net939	BL36bar	vss	nfet
+ L=0.12U	W=0.28U
+ AD=0.0504P	AS=0.0896P	PD=0.64U	PS=1.2U
+ wt=2.8e-07 wf=2.8e-07 sd=0 sb=1.76e-06 sa=3.2e-07 rgatemod=1 rbodymod=0 psp=0 par=1 panw6=9.6e-15 panw5=6e-15 panw4=6e-15 panw3=6e-15 panw2=6e-15 nrs=0.93617 nrd=0.93617 ngcon=1 nf=1 mSwitch=0 m=1 lstis=1 lnws=1 blockParametersBetween="PC sub" bentgate=0 PWORIENT=1 PLORIENT=1
MI0/I4046/T3	I0/I4046/net049	net938	BL36bar	vss	nfet
+ L=0.12U	W=0.28U
+ AD=0.0504P	AS=0.0896P	PD=0.64U	PS=1.2U
+ wt=2.8e-07 wf=2.8e-07 sd=0 sb=1.76e-06 sa=3.2e-07 rgatemod=1 rbodymod=0 psp=0 par=1 panw6=9.6e-15 panw5=6e-15 panw4=6e-15 panw3=6e-15 panw2=6e-15 nrs=0.93617 nrd=0.93617 ngcon=1 nf=1 mSwitch=0 m=1 lstis=1 lnws=1 blockParametersBetween="PC sub" bentgate=0 PWORIENT=1 PLORIENT=1
MI0/I4155/T4	vss	I0/I4155/net13	I0/I4155/net049	vss	nfet
+ L=0.12U	W=0.28U
+ AD=0.0504P	AS=0.0504P	PD=0.64U	PS=0.64U
+ wt=2.8e-07 wf=2.8e-07 sd=0 sb=1.28e-06 sa=8e-07 rgatemod=1 rbodymod=0 psp=0 par=1 panw6=9.6e-15 panw5=6e-15 panw4=6e-15 panw3=6e-15 panw2=6e-15 nrs=0.93617 nrd=0.93617 ngcon=1 nf=1 mSwitch=0 m=1 lstis=1 lnws=1 blockParametersBetween="PC sub" bentgate=0 PWORIENT=1 PLORIENT=1
MI0/I4145/T4	vss	I0/I4145/net13	I0/I4145/net049	vss	nfet
+ L=0.12U	W=0.28U
+ AD=0.0504P	AS=0.0504P	PD=0.64U	PS=0.64U
+ wt=2.8e-07 wf=2.8e-07 sd=0 sb=1.28e-06 sa=8e-07 rgatemod=1 rbodymod=0 psp=0 par=1 panw6=9.6e-15 panw5=6e-15 panw4=6e-15 panw3=6e-15 panw2=6e-15 nrs=0.93617 nrd=0.93617 ngcon=1 nf=1 mSwitch=0 m=1 lstis=1 lnws=1 blockParametersBetween="PC sub" bentgate=0 PWORIENT=1 PLORIENT=1
MI0/I4155/T5	I0/I4155/net13	I0/I4155/net049	vss	vss	nfet
+ L=0.12U	W=0.28U
+ AD=0.0504P	AS=0.0504P	PD=0.64U	PS=0.64U
+ wt=2.8e-07 wf=2.8e-07 sd=0 sb=8e-07 sa=1.28e-06 rgatemod=1 rbodymod=0 psp=0 par=1 panw6=9.6e-15 panw5=6e-15 panw4=6e-15 panw3=6e-15 panw2=6e-15 nrs=0.93617 nrd=0.93617 ngcon=1 nf=1 mSwitch=0 m=1 lstis=1 lnws=1 blockParametersBetween="PC sub" bentgate=0 PWORIENT=1 PLORIENT=1
MI0/I4145/T5	I0/I4145/net13	I0/I4145/net049	vss	vss	nfet
+ L=0.12U	W=0.28U
+ AD=0.0504P	AS=0.0504P	PD=0.64U	PS=0.64U
+ wt=2.8e-07 wf=2.8e-07 sd=0 sb=8e-07 sa=1.28e-06 rgatemod=1 rbodymod=0 psp=0 par=1 panw6=9.6e-15 panw5=6e-15 panw4=6e-15 panw3=6e-15 panw2=6e-15 nrs=0.93617 nrd=0.93617 ngcon=1 nf=1 mSwitch=0 m=1 lstis=1 lnws=1 blockParametersBetween="PC sub" bentgate=0 PWORIENT=1 PLORIENT=1
MI0/I4155/T2	BL37	net946	I0/I4155/net13	vss	nfet	L=0.12U
+ W=0.28U
+ AD=0.0896P	AS=0.0504P	PD=1.2U	PS=0.64U
+ wt=2.8e-07 wf=2.8e-07 sd=0 sb=3.2e-07 sa=1.76e-06 rgatemod=1 rbodymod=0 psp=0 par=1 panw6=9.6e-15 panw5=6e-15 panw4=6e-15 panw3=6e-15 panw2=6e-15 nrs=0.93617 nrd=0.93617 ngcon=1 nf=1 mSwitch=0 m=1 lstis=1 lnws=1 blockParametersBetween="PC sub" bentgate=0 PWORIENT=1 PLORIENT=1
MI0/I4145/T2	BL37	net945	I0/I4145/net13	vss	nfet	L=0.12U
+ W=0.28U
+ AD=0.0896P	AS=0.0504P	PD=1.2U	PS=0.64U
+ wt=2.8e-07 wf=2.8e-07 sd=0 sb=3.2e-07 sa=1.76e-06 rgatemod=1 rbodymod=0 psp=0 par=1 panw6=9.6e-15 panw5=6e-15 panw4=6e-15 panw3=6e-15 panw2=6e-15 nrs=0.93617 nrd=0.93617 ngcon=1 nf=1 mSwitch=0 m=1 lstis=1 lnws=1 blockParametersBetween="PC sub" bentgate=0 PWORIENT=1 PLORIENT=1
MI0/I4171/T4	vss	I0/I4171/net13	I0/I4171/net049	vss	nfet
+ L=0.12U	W=0.28U
+ AD=0.0504P	AS=0.0504P	PD=0.64U	PS=0.64U
+ wt=2.8e-07 wf=2.8e-07 sd=0 sb=1.28e-06 sa=8e-07 rgatemod=1 rbodymod=0 psp=0 par=1 panw6=9.6e-15 panw5=6e-15 panw4=6e-15 panw3=6e-15 panw2=6e-15 nrs=0.93617 nrd=0.93617 ngcon=1 nf=1 mSwitch=0 m=1 lstis=1 lnws=1 blockParametersBetween="PC sub" bentgate=0 PWORIENT=1 PLORIENT=1
MI0/I4165/T4	vss	I0/I4165/net13	I0/I4165/net049	vss	nfet
+ L=0.12U	W=0.28U
+ AD=0.0504P	AS=0.0504P	PD=0.64U	PS=0.64U
+ wt=2.8e-07 wf=2.8e-07 sd=0 sb=1.28e-06 sa=8e-07 rgatemod=1 rbodymod=0 psp=0 par=1 panw6=9.6e-15 panw5=6e-15 panw4=6e-15 panw3=6e-15 panw2=6e-15 nrs=0.93617 nrd=0.93617 ngcon=1 nf=1 mSwitch=0 m=1 lstis=1 lnws=1 blockParametersBetween="PC sub" bentgate=0 PWORIENT=1 PLORIENT=1
MI0/I4171/T5	I0/I4171/net13	I0/I4171/net049	vss	vss	nfet
+ L=0.12U	W=0.28U
+ AD=0.0504P	AS=0.0504P	PD=0.64U	PS=0.64U
+ wt=2.8e-07 wf=2.8e-07 sd=0 sb=8e-07 sa=1.28e-06 rgatemod=1 rbodymod=0 psp=0 par=1 panw6=9.6e-15 panw5=6e-15 panw4=6e-15 panw3=6e-15 panw2=6e-15 nrs=0.93617 nrd=0.93617 ngcon=1 nf=1 mSwitch=0 m=1 lstis=1 lnws=1 blockParametersBetween="PC sub" bentgate=0 PWORIENT=1 PLORIENT=1
MI0/I4165/T5	I0/I4165/net13	I0/I4165/net049	vss	vss	nfet
+ L=0.12U	W=0.28U
+ AD=0.0504P	AS=0.0504P	PD=0.64U	PS=0.64U
+ wt=2.8e-07 wf=2.8e-07 sd=0 sb=8e-07 sa=1.28e-06 rgatemod=1 rbodymod=0 psp=0 par=1 panw6=9.6e-15 panw5=6e-15 panw4=6e-15 panw3=6e-15 panw2=6e-15 nrs=0.93617 nrd=0.93617 ngcon=1 nf=1 mSwitch=0 m=1 lstis=1 lnws=1 blockParametersBetween="PC sub" bentgate=0 PWORIENT=1 PLORIENT=1
MI0/I4171/T2	BL37	net944	I0/I4171/net13	vss	nfet	L=0.12U
+ W=0.28U
+ AD=0.0896P	AS=0.0504P	PD=1.2U	PS=0.64U
+ wt=2.8e-07 wf=2.8e-07 sd=0 sb=3.2e-07 sa=1.76e-06 rgatemod=1 rbodymod=0 psp=0 par=1 panw6=9.6e-15 panw5=6e-15 panw4=6e-15 panw3=6e-15 panw2=6e-15 nrs=0.93617 nrd=0.93617 ngcon=1 nf=1 mSwitch=0 m=1 lstis=1 lnws=1 blockParametersBetween="PC sub" bentgate=0 PWORIENT=1 PLORIENT=1
MI0/I4165/T2	BL37	net943	I0/I4165/net13	vss	nfet	L=0.12U
+ W=0.28U
+ AD=0.0896P	AS=0.0504P	PD=1.2U	PS=0.64U
+ wt=2.8e-07 wf=2.8e-07 sd=0 sb=3.2e-07 sa=1.76e-06 rgatemod=1 rbodymod=0 psp=0 par=1 panw6=9.6e-15 panw5=6e-15 panw4=6e-15 panw3=6e-15 panw2=6e-15 nrs=0.93617 nrd=0.93617 ngcon=1 nf=1 mSwitch=0 m=1 lstis=1 lnws=1 blockParametersBetween="PC sub" bentgate=0 PWORIENT=1 PLORIENT=1
MI0/I4151/T4	vss	I0/I4151/net13	I0/I4151/net049	vss	nfet
+ L=0.12U	W=0.28U
+ AD=0.0504P	AS=0.0504P	PD=0.64U	PS=0.64U
+ wt=2.8e-07 wf=2.8e-07 sd=0 sb=1.28e-06 sa=8e-07 rgatemod=1 rbodymod=0 psp=0 par=1 panw6=9.6e-15 panw5=6e-15 panw4=6e-15 panw3=6e-15 panw2=6e-15 nrs=0.93617 nrd=0.93617 ngcon=1 nf=1 mSwitch=0 m=1 lstis=1 lnws=1 blockParametersBetween="PC sub" bentgate=0 PWORIENT=1 PLORIENT=1
MI0/I4151/T5	I0/I4151/net13	I0/I4151/net049	vss	vss	nfet
+ L=0.12U	W=0.28U
+ AD=0.0504P	AS=0.0504P	PD=0.64U	PS=0.64U
+ wt=2.8e-07 wf=2.8e-07 sd=0 sb=8e-07 sa=1.28e-06 rgatemod=1 rbodymod=0 psp=0 par=1 panw6=9.6e-15 panw5=6e-15 panw4=6e-15 panw3=6e-15 panw2=6e-15 nrs=0.93617 nrd=0.93617 ngcon=1 nf=1 mSwitch=0 m=1 lstis=1 lnws=1 blockParametersBetween="PC sub" bentgate=0 PWORIENT=1 PLORIENT=1
MI0/I4151/T2	BL37	net942	I0/I4151/net13	vss	nfet	L=0.12U
+ W=0.28U
+ AD=0.0896P	AS=0.0504P	PD=1.2U	PS=0.64U
+ wt=2.8e-07 wf=2.8e-07 sd=0 sb=3.2e-07 sa=1.76e-06 rgatemod=1 rbodymod=0 psp=0 par=1 panw6=9.6e-15 panw5=6e-15 panw4=6e-15 panw3=6e-15 panw2=6e-15 nrs=0.93617 nrd=0.93617 ngcon=1 nf=1 mSwitch=0 m=1 lstis=1 lnws=1 blockParametersBetween="PC sub" bentgate=0 PWORIENT=1 PLORIENT=1
MI0/I4144/T4	vss	I0/I4144/net13	I0/I4144/net049	vss	nfet
+ L=0.12U	W=0.28U
+ AD=0.0504P	AS=0.0504P	PD=0.64U	PS=0.64U
+ wt=2.8e-07 wf=2.8e-07 sd=0 sb=1.28e-06 sa=8e-07 rgatemod=1 rbodymod=0 psp=0 par=1 panw6=9.6e-15 panw5=6e-15 panw4=6e-15 panw3=6e-15 panw2=6e-15 nrs=0.93617 nrd=0.93617 ngcon=1 nf=1 mSwitch=0 m=1 lstis=1 lnws=1 blockParametersBetween="PC sub" bentgate=0 PWORIENT=1 PLORIENT=1
MI0/I4167/T4	vss	I0/I4167/net13	I0/I4167/net049	vss	nfet
+ L=0.12U	W=0.28U
+ AD=0.0504P	AS=0.0504P	PD=0.64U	PS=0.64U
+ wt=2.8e-07 wf=2.8e-07 sd=0 sb=1.28e-06 sa=8e-07 rgatemod=1 rbodymod=0 psp=0 par=1 panw6=9.6e-15 panw5=6e-15 panw4=6e-15 panw3=6e-15 panw2=6e-15 nrs=0.93617 nrd=0.93617 ngcon=1 nf=1 mSwitch=0 m=1 lstis=1 lnws=1 blockParametersBetween="PC sub" bentgate=0 PWORIENT=1 PLORIENT=1
MI0/I4144/T5	I0/I4144/net13	I0/I4144/net049	vss	vss	nfet
+ L=0.12U	W=0.28U
+ AD=0.0504P	AS=0.0504P	PD=0.64U	PS=0.64U
+ wt=2.8e-07 wf=2.8e-07 sd=0 sb=8e-07 sa=1.28e-06 rgatemod=1 rbodymod=0 psp=0 par=1 panw6=9.6e-15 panw5=6e-15 panw4=6e-15 panw3=6e-15 panw2=6e-15 nrs=0.93617 nrd=0.93617 ngcon=1 nf=1 mSwitch=0 m=1 lstis=1 lnws=1 blockParametersBetween="PC sub" bentgate=0 PWORIENT=1 PLORIENT=1
MI0/I4167/T5	I0/I4167/net13	I0/I4167/net049	vss	vss	nfet
+ L=0.12U	W=0.28U
+ AD=0.0504P	AS=0.0504P	PD=0.64U	PS=0.64U
+ wt=2.8e-07 wf=2.8e-07 sd=0 sb=8e-07 sa=1.28e-06 rgatemod=1 rbodymod=0 psp=0 par=1 panw6=9.6e-15 panw5=6e-15 panw4=6e-15 panw3=6e-15 panw2=6e-15 nrs=0.93617 nrd=0.93617 ngcon=1 nf=1 mSwitch=0 m=1 lstis=1 lnws=1 blockParametersBetween="PC sub" bentgate=0 PWORIENT=1 PLORIENT=1
MI0/I4144/T2	BL37	net941	I0/I4144/net13	vss	nfet	L=0.12U
+ W=0.28U
+ AD=0.0896P	AS=0.0504P	PD=1.2U	PS=0.64U
+ wt=2.8e-07 wf=2.8e-07 sd=0 sb=3.2e-07 sa=1.76e-06 rgatemod=1 rbodymod=0 psp=0 par=1 panw6=9.6e-15 panw5=6e-15 panw4=6e-15 panw3=6e-15 panw2=6e-15 nrs=0.93617 nrd=0.93617 ngcon=1 nf=1 mSwitch=0 m=1 lstis=1 lnws=1 blockParametersBetween="PC sub" bentgate=0 PWORIENT=1 PLORIENT=1
MI0/I4167/T2	BL37	net940	I0/I4167/net13	vss	nfet	L=0.12U
+ W=0.28U
+ AD=0.0896P	AS=0.0504P	PD=1.2U	PS=0.64U
+ wt=2.8e-07 wf=2.8e-07 sd=0 sb=3.2e-07 sa=1.76e-06 rgatemod=1 rbodymod=0 psp=0 par=1 panw6=9.6e-15 panw5=6e-15 panw4=6e-15 panw3=6e-15 panw2=6e-15 nrs=0.93617 nrd=0.93617 ngcon=1 nf=1 mSwitch=0 m=1 lstis=1 lnws=1 blockParametersBetween="PC sub" bentgate=0 PWORIENT=1 PLORIENT=1
MI0/I4164/T4	vss	I0/I4164/net13	I0/I4164/net049	vss	nfet
+ L=0.12U	W=0.28U
+ AD=0.0504P	AS=0.0504P	PD=0.64U	PS=0.64U
+ wt=2.8e-07 wf=2.8e-07 sd=0 sb=1.28e-06 sa=8e-07 rgatemod=1 rbodymod=0 psp=0 par=1 panw6=9.6e-15 panw5=6e-15 panw4=6e-15 panw3=6e-15 panw2=6e-15 nrs=0.93617 nrd=0.93617 ngcon=1 nf=1 mSwitch=0 m=1 lstis=1 lnws=1 blockParametersBetween="PC sub" bentgate=0 PWORIENT=1 PLORIENT=1
MI0/I4142/T4	vss	I0/I4142/net13	I0/I4142/net049	vss	nfet
+ L=0.12U	W=0.28U
+ AD=0.0504P	AS=0.0504P	PD=0.64U	PS=0.64U
+ wt=2.8e-07 wf=2.8e-07 sd=0 sb=1.28e-06 sa=8e-07 rgatemod=1 rbodymod=0 psp=0 par=1 panw6=9.6e-15 panw5=6e-15 panw4=6e-15 panw3=6e-15 panw2=6e-15 nrs=0.93617 nrd=0.93617 ngcon=1 nf=1 mSwitch=0 m=1 lstis=1 lnws=1 blockParametersBetween="PC sub" bentgate=0 PWORIENT=1 PLORIENT=1
MI0/I4164/T5	I0/I4164/net13	I0/I4164/net049	vss	vss	nfet
+ L=0.12U	W=0.28U
+ AD=0.0504P	AS=0.0504P	PD=0.64U	PS=0.64U
+ wt=2.8e-07 wf=2.8e-07 sd=0 sb=8e-07 sa=1.28e-06 rgatemod=1 rbodymod=0 psp=0 par=1 panw6=9.6e-15 panw5=6e-15 panw4=6e-15 panw3=6e-15 panw2=6e-15 nrs=0.93617 nrd=0.93617 ngcon=1 nf=1 mSwitch=0 m=1 lstis=1 lnws=1 blockParametersBetween="PC sub" bentgate=0 PWORIENT=1 PLORIENT=1
MI0/I4142/T5	I0/I4142/net13	I0/I4142/net049	vss	vss	nfet
+ L=0.12U	W=0.28U
+ AD=0.0504P	AS=0.0504P	PD=0.64U	PS=0.64U
+ wt=2.8e-07 wf=2.8e-07 sd=0 sb=8e-07 sa=1.28e-06 rgatemod=1 rbodymod=0 psp=0 par=1 panw6=9.6e-15 panw5=6e-15 panw4=6e-15 panw3=6e-15 panw2=6e-15 nrs=0.93617 nrd=0.93617 ngcon=1 nf=1 mSwitch=0 m=1 lstis=1 lnws=1 blockParametersBetween="PC sub" bentgate=0 PWORIENT=1 PLORIENT=1
MI0/I4164/T2	BL37	net939	I0/I4164/net13	vss	nfet	L=0.12U
+ W=0.28U
+ AD=0.0896P	AS=0.0504P	PD=1.2U	PS=0.64U
+ wt=2.8e-07 wf=2.8e-07 sd=0 sb=3.2e-07 sa=1.76e-06 rgatemod=1 rbodymod=0 psp=0 par=1 panw6=9.6e-15 panw5=6e-15 panw4=6e-15 panw3=6e-15 panw2=6e-15 nrs=0.93617 nrd=0.93617 ngcon=1 nf=1 mSwitch=0 m=1 lstis=1 lnws=1 blockParametersBetween="PC sub" bentgate=0 PWORIENT=1 PLORIENT=1
MI0/I4142/T2	BL37	net938	I0/I4142/net13	vss	nfet	L=0.12U
+ W=0.28U
+ AD=0.0896P	AS=0.0504P	PD=1.2U	PS=0.64U
+ wt=2.8e-07 wf=2.8e-07 sd=0 sb=3.2e-07 sa=1.76e-06 rgatemod=1 rbodymod=0 psp=0 par=1 panw6=9.6e-15 panw5=6e-15 panw4=6e-15 panw3=6e-15 panw2=6e-15 nrs=0.93617 nrd=0.93617 ngcon=1 nf=1 mSwitch=0 m=1 lstis=1 lnws=1 blockParametersBetween="PC sub" bentgate=0 PWORIENT=1 PLORIENT=1
MI0/I4155/T3	I0/I4155/net049	net946	BL37bar	vss	nfet
+ L=0.12U	W=0.28U
+ AD=0.0504P	AS=0.0896P	PD=0.64U	PS=1.2U
+ wt=2.8e-07 wf=2.8e-07 sd=0 sb=1.76e-06 sa=3.2e-07 rgatemod=1 rbodymod=0 psp=0 par=1 panw6=9.6e-15 panw5=6e-15 panw4=6e-15 panw3=6e-15 panw2=6e-15 nrs=0.93617 nrd=0.93617 ngcon=1 nf=1 mSwitch=0 m=1 lstis=1 lnws=1 blockParametersBetween="PC sub" bentgate=0 PWORIENT=1 PLORIENT=1
MI0/I4145/T3	I0/I4145/net049	net945	BL37bar	vss	nfet
+ L=0.12U	W=0.28U
+ AD=0.0504P	AS=0.0896P	PD=0.64U	PS=1.2U
+ wt=2.8e-07 wf=2.8e-07 sd=0 sb=1.76e-06 sa=3.2e-07 rgatemod=1 rbodymod=0 psp=0 par=1 panw6=9.6e-15 panw5=6e-15 panw4=6e-15 panw3=6e-15 panw2=6e-15 nrs=0.93617 nrd=0.93617 ngcon=1 nf=1 mSwitch=0 m=1 lstis=1 lnws=1 blockParametersBetween="PC sub" bentgate=0 PWORIENT=1 PLORIENT=1
MI0/I4171/T3	I0/I4171/net049	net944	BL37bar	vss	nfet
+ L=0.12U	W=0.28U
+ AD=0.0504P	AS=0.0896P	PD=0.64U	PS=1.2U
+ wt=2.8e-07 wf=2.8e-07 sd=0 sb=1.76e-06 sa=3.2e-07 rgatemod=1 rbodymod=0 psp=0 par=1 panw6=9.6e-15 panw5=6e-15 panw4=6e-15 panw3=6e-15 panw2=6e-15 nrs=0.93617 nrd=0.93617 ngcon=1 nf=1 mSwitch=0 m=1 lstis=1 lnws=1 blockParametersBetween="PC sub" bentgate=0 PWORIENT=1 PLORIENT=1
MI0/I4165/T3	I0/I4165/net049	net943	BL37bar	vss	nfet
+ L=0.12U	W=0.28U
+ AD=0.0504P	AS=0.0896P	PD=0.64U	PS=1.2U
+ wt=2.8e-07 wf=2.8e-07 sd=0 sb=1.76e-06 sa=3.2e-07 rgatemod=1 rbodymod=0 psp=0 par=1 panw6=9.6e-15 panw5=6e-15 panw4=6e-15 panw3=6e-15 panw2=6e-15 nrs=0.93617 nrd=0.93617 ngcon=1 nf=1 mSwitch=0 m=1 lstis=1 lnws=1 blockParametersBetween="PC sub" bentgate=0 PWORIENT=1 PLORIENT=1
MI0/I4151/T3	I0/I4151/net049	net942	BL37bar	vss	nfet
+ L=0.12U	W=0.28U
+ AD=0.0504P	AS=0.0896P	PD=0.64U	PS=1.2U
+ wt=2.8e-07 wf=2.8e-07 sd=0 sb=1.76e-06 sa=3.2e-07 rgatemod=1 rbodymod=0 psp=0 par=1 panw6=9.6e-15 panw5=6e-15 panw4=6e-15 panw3=6e-15 panw2=6e-15 nrs=0.93617 nrd=0.93617 ngcon=1 nf=1 mSwitch=0 m=1 lstis=1 lnws=1 blockParametersBetween="PC sub" bentgate=0 PWORIENT=1 PLORIENT=1
MI0/I4144/T3	I0/I4144/net049	net941	BL37bar	vss	nfet
+ L=0.12U	W=0.28U
+ AD=0.0504P	AS=0.0896P	PD=0.64U	PS=1.2U
+ wt=2.8e-07 wf=2.8e-07 sd=0 sb=1.76e-06 sa=3.2e-07 rgatemod=1 rbodymod=0 psp=0 par=1 panw6=9.6e-15 panw5=6e-15 panw4=6e-15 panw3=6e-15 panw2=6e-15 nrs=0.93617 nrd=0.93617 ngcon=1 nf=1 mSwitch=0 m=1 lstis=1 lnws=1 blockParametersBetween="PC sub" bentgate=0 PWORIENT=1 PLORIENT=1
MI0/I4167/T3	I0/I4167/net049	net940	BL37bar	vss	nfet
+ L=0.12U	W=0.28U
+ AD=0.0504P	AS=0.0896P	PD=0.64U	PS=1.2U
+ wt=2.8e-07 wf=2.8e-07 sd=0 sb=1.76e-06 sa=3.2e-07 rgatemod=1 rbodymod=0 psp=0 par=1 panw6=9.6e-15 panw5=6e-15 panw4=6e-15 panw3=6e-15 panw2=6e-15 nrs=0.93617 nrd=0.93617 ngcon=1 nf=1 mSwitch=0 m=1 lstis=1 lnws=1 blockParametersBetween="PC sub" bentgate=0 PWORIENT=1 PLORIENT=1
MI0/I4164/T3	I0/I4164/net049	net939	BL37bar	vss	nfet
+ L=0.12U	W=0.28U
+ AD=0.0504P	AS=0.0896P	PD=0.64U	PS=1.2U
+ wt=2.8e-07 wf=2.8e-07 sd=0 sb=1.76e-06 sa=3.2e-07 rgatemod=1 rbodymod=0 psp=0 par=1 panw6=9.6e-15 panw5=6e-15 panw4=6e-15 panw3=6e-15 panw2=6e-15 nrs=0.93617 nrd=0.93617 ngcon=1 nf=1 mSwitch=0 m=1 lstis=1 lnws=1 blockParametersBetween="PC sub" bentgate=0 PWORIENT=1 PLORIENT=1
MI0/I4142/T3	I0/I4142/net049	net938	BL37bar	vss	nfet
+ L=0.12U	W=0.28U
+ AD=0.0504P	AS=0.0896P	PD=0.64U	PS=1.2U
+ wt=2.8e-07 wf=2.8e-07 sd=0 sb=1.76e-06 sa=3.2e-07 rgatemod=1 rbodymod=0 psp=0 par=1 panw6=9.6e-15 panw5=6e-15 panw4=6e-15 panw3=6e-15 panw2=6e-15 nrs=0.93617 nrd=0.93617 ngcon=1 nf=1 mSwitch=0 m=1 lstis=1 lnws=1 blockParametersBetween="PC sub" bentgate=0 PWORIENT=1 PLORIENT=1
MI0/I4219/T5	I0/I4219/net13	I0/I4219/net049	vss	vss	nfet
+ L=0.12U	W=0.28U
+ AD=0.0504P	AS=0.0504P	PD=0.64U	PS=0.64U
+ wt=2.8e-07 wf=2.8e-07 sd=0 sb=8e-07 sa=1.28e-06 rgatemod=1 rbodymod=0 psp=0 par=1 panw6=9.6e-15 panw5=6e-15 panw4=6e-15 panw3=6e-15 panw2=6e-15 nrs=0.93617 nrd=0.93617 ngcon=1 nf=1 mSwitch=0 m=1 lstis=1 lnws=1 blockParametersBetween="PC sub" bentgate=0 PWORIENT=1 PLORIENT=1
MI0/I4219/T2	BL39	net946	I0/I4219/net13	vss	nfet	L=0.12U
+ W=0.28U
+ AD=0.0896P	AS=0.0504P	PD=1.2U	PS=0.64U
+ wt=2.8e-07 wf=2.8e-07 sd=0 sb=3.2e-07 sa=1.76e-06 rgatemod=1 rbodymod=0 psp=0 par=1 panw6=9.6e-15 panw5=6e-15 panw4=6e-15 panw3=6e-15 panw2=6e-15 nrs=0.93617 nrd=0.93617 ngcon=1 nf=1 mSwitch=0 m=1 lstis=1 lnws=1 blockParametersBetween="PC sub" bentgate=0 PWORIENT=1 PLORIENT=1
MI0/I4187/T3	I0/I4187/net049	net946	BL38bar	vss	nfet
+ L=0.12U	W=0.28U
+ AD=0.0504P	AS=0.0896P	PD=0.64U	PS=1.2U
+ wt=2.8e-07 wf=2.8e-07 sd=0 sb=1.76e-06 sa=3.2e-07 rgatemod=1 rbodymod=0 psp=0 par=1 panw6=9.6e-15 panw5=6e-15 panw4=6e-15 panw3=6e-15 panw2=6e-15 nrs=0.93617 nrd=0.93617 ngcon=1 nf=1 mSwitch=0 m=1 lstis=1 lnws=1 blockParametersBetween="PC sub" bentgate=0 PWORIENT=1 PLORIENT=1
MI0/I4187/T4	vss	I0/I4187/net13	I0/I4187/net049	vss	nfet
+ L=0.12U	W=0.28U
+ AD=0.0504P	AS=0.0504P	PD=0.64U	PS=0.64U
+ wt=2.8e-07 wf=2.8e-07 sd=0 sb=1.28e-06 sa=8e-07 rgatemod=1 rbodymod=0 psp=0 par=1 panw6=9.6e-15 panw5=6e-15 panw4=6e-15 panw3=6e-15 panw2=6e-15 nrs=0.93617 nrd=0.93617 ngcon=1 nf=1 mSwitch=0 m=1 lstis=1 lnws=1 blockParametersBetween="PC sub" bentgate=0 PWORIENT=1 PLORIENT=1
MI0/I4187/T5	I0/I4187/net13	I0/I4187/net049	vss	vss	nfet
+ L=0.12U	W=0.28U
+ AD=0.0504P	AS=0.0504P	PD=0.64U	PS=0.64U
+ wt=2.8e-07 wf=2.8e-07 sd=0 sb=8e-07 sa=1.28e-06 rgatemod=1 rbodymod=0 psp=0 par=1 panw6=9.6e-15 panw5=6e-15 panw4=6e-15 panw3=6e-15 panw2=6e-15 nrs=0.93617 nrd=0.93617 ngcon=1 nf=1 mSwitch=0 m=1 lstis=1 lnws=1 blockParametersBetween="PC sub" bentgate=0 PWORIENT=1 PLORIENT=1
MI0/I4187/T2	BL38	net946	I0/I4187/net13	vss	nfet	L=0.12U
+ W=0.28U
[...]
C2443	I0/I3121/net13	vss	7.20083E-16
C2444	I0/I3569/net13	vss	7.20083E-16
C2445	I0/I3962/net13	vss	7.20083E-16
C2446	I0/I3131/net13	vss	7.23918E-16
C2447	I1/net352	vss	1.55034E-15
C2448	I0/I3579/net13	vss	7.23918E-16
C2449	I0/I3970/net13	vss	7.23918E-16
C2450	I0/I3130/net13	vss	7.20083E-16
C2451	I0/I3578/net13	vss	7.20083E-16
C2452	I0/I3974/net13	vss	7.20083E-16
C2453	I0/I3138/net13	vss	7.23918E-16
C2454	I1/net420	vss	1.54695E-15
C2455	I0/I3586/net13	vss	7.23918E-16
C2456	I0/I3976/net13	vss	7.23918E-16
C2457	I0/I3142/net13	vss	7.20083E-16
C2458	I0/I3590/net13	vss	7.20083E-16
C2459	I0/I3961/net13	vss	7.20083E-16
C2460	I0/I3144/net13	vss	7.23918E-16
C2461	I1/net284	vss	1.54659E-15
C2462	I0/I3592/net13	vss	7.23918E-16
C2463	I0/I3980/net13	vss	7.23918E-16
C2464	I0/I3129/net13	vss	7.20083E-16
C2465	I0/I3577/net13	vss	7.20083E-16
C2466	I0/I3955/net13	vss	7.20083E-16
C2467	I0/I3148/net13	vss	7.23918E-16
C2468	I1/net412	vss	1.54879E-15
C2469	I0/I3596/net13	vss	7.23918E-16
C2470	I0/I3956/net13	vss	7.23918E-16
C2471	I0/I3123/net13	vss	7.20083E-16
C2472	I0/I3571/net13	vss	7.20083E-16
C2473	I0/I3964/net13	vss	7.20313E-16
C2474	I0/I3124/net13	vss	7.23918E-16
C2475	I1/net72	vss	1.55032E-15
C2476	I0/I3572/net13	vss	7.23918E-16
C2477	I0/I3132/net13	vss	7.20313E-16
C2478	I0/I3580/net13	vss	7.20313E-16
C2479	I1/net76	vss	1.54693E-15
C2480	I5/net20	vss	1.07108E-15
C2481	I1/net112	vss	1.54663E-15
C2482	I1/net176	vss	1.58271E-15
C2483	I116/net0157	vss	3.2957E-15
C2484	I1/net2236	vss	1.44541E-15
C2485	I1/net2192	vss	1.50449E-15
C2486	I1/net2216	vss	1.51325E-15
C2487	I1/net2256	vss	1.55569E-15
C2488	I1/net1892	vss	1.50193E-15
C2489	I10/net20	vss	1.07168E-15
C2490	I10/net23	vss	5.28347E-16
C2491	I0/I3122/net049	vss	9.08677E-16
C2492	I5/net23	vss	5.34461E-16
C2493	I0/I3954/net049	vss	9.08677E-16
C2494	I0/I3145/net049	vss	8.7256E-16
C2495	I0/I3570/net049	vss	9.08848E-16
C2496	I0/I3977/net049	vss	8.72451E-16
C2497	I0/I3146/net049	vss	8.95432E-16
C2498	I1/net2120	vss	1.49648E-15
C2499	I0/I3593/net049	vss	8.7256E-16
C2500	I0/I3978/net049	vss	8.95432E-16
C2501	I0/I3135/net049	vss	8.7256E-16
C2502	I0/I3594/net049	vss	8.95432E-16
C2503	I0/I3967/net049	vss	8.7256E-16
C2504	I0/I3149/net049	vss	8.95432E-16
C2505	I0/I3583/net049	vss	8.7256E-16
C2506	I0/I3981/net049	vss	8.95432E-16
C2507	I0/I3137/net049	vss	8.7256E-16
C2508	I0/I3597/net049	vss	8.95432E-16
C2509	I0/I3969/net049	vss	8.7256E-16
C2510	I0/I3133/net049	vss	8.95432E-16
C2511	I1/net1396	vss	1.51325E-15
C2512	I0/I3585/net049	vss	8.7256E-16
C2513	I0/I3965/net049	vss	8.95432E-16
C2514	I0/I3139/net049	vss	8.7256E-16
C2515	I0/I3581/net049	vss	8.95432E-16
C2516	I0/I3971/net049	vss	8.7256E-16
C2517	I0/I3125/net049	vss	8.95432E-16
C2518	I0/I3587/net049	vss	8.7256E-16
C2519	I0/I3957/net049	vss	8.95432E-16
C2520	I0/I3136/net049	vss	8.7256E-16
C2521	I0/I3573/net049	vss	8.95432E-16
C2522	I0/I3968/net049	vss	8.7256E-16
C2523	I0/I3134/net049	vss	8.95432E-16
C2524	I1/net1908	vss	1.48051E-15
C2525	I0/I3584/net049	vss	8.7256E-16
C2526	I0/I3966/net049	vss	8.95432E-16
C2527	I0/I3128/net049	vss	8.7256E-16
C2528	I0/I3582/net049	vss	8.95432E-16
C2529	I0/I3960/net049	vss	8.7256E-16
C2530	I0/I3126/net049	vss	8.95432E-16
C2531	I0/I3576/net049	vss	8.7256E-16
C2532	I0/I3958/net049	vss	8.95432E-16
C2533	I0/I3119/net049	vss	8.7256E-16
C2534	I0/I3574/net049	vss	8.95432E-16
C2535	I0/I3951/net049	vss	8.7256E-16
C2536	I0/I3118/net049	vss	8.95432E-16
C2537	I1/net2032	vss	1.45167E-15
C2538	I0/I3567/net049	vss	8.7256E-16
C2539	I0/I3950/net049	vss	8.95432E-16
C2540	I0/I3140/net049	vss	8.7256E-16
C2541	I0/I3566/net049	vss	8.95432E-16
C2542	I0/I3972/net049	vss	8.7256E-16
C2543	I0/I3143/net049	vss	8.95432E-16
C2544	I0/I3588/net049	vss	8.7256E-16
C2545	I0/I3975/net049	vss	8.95432E-16
C2546	I0/I3120/net049	vss	8.7256E-16
C2547	I0/I3591/net049	vss	8.95432E-16
C2548	I0/I3952/net049	vss	8.7256E-16
C2549	I0/I3127/net049	vss	8.95432E-16
C2550	I1/net2012	vss	1.50577E-15
C2551	I0/I3568/net049	vss	8.7256E-16
C2552	I0/I3959/net049	vss	8.95432E-16
C2553	I0/I3141/net049	vss	8.7256E-16
C2554	I0/I3575/net049	vss	8.95432E-16
C2555	I0/I3973/net049	vss	8.7256E-16
C2556	I0/I3147/net049	vss	8.95432E-16
C2557	I0/I3589/net049	vss	8.7256E-16
C2558	I0/I3979/net049	vss	8.95432E-16
C2559	I0/I3121/net049	vss	8.7256E-16
C2560	I0/I3595/net049	vss	8.95432E-16
C2561	I0/I3953/net049	vss	8.7256E-16
C2562	I0/I3131/net049	vss	8.95432E-16
C2563	I1/net1984	vss	1.51325E-15
C2564	I0/I3569/net049	vss	8.7256E-16
C2565	I0/I3963/net049	vss	8.95432E-16
C2566	I0/I3130/net049	vss	8.7256E-16
C2567	I0/I3579/net049	vss	8.95432E-16
C2568	I0/I3962/net049	vss	8.7256E-16
C2569	I0/I3138/net049	vss	8.95432E-16
C2570	I0/I3578/net049	vss	8.7256E-16
C2571	I0/I3970/net049	vss	8.95432E-16
C2572	I0/I3142/net049	vss	8.7256E-16
C2573	I0/I3586/net049	vss	8.95432E-16
C2574	I0/I3974/net049	vss	8.7256E-16
C2575	I0/I3144/net049	vss	8.95432E-16
C2576	I1/net1960	vss	1.53983E-15
C2577	I0/I3590/net049	vss	8.7256E-16
C2578	I0/I3976/net049	vss	8.95432E-16
C2579	I0/I3129/net049	vss	8.7256E-16
C2580	I0/I3592/net049	vss	8.95432E-16
C2581	I0/I3961/net049	vss	8.7256E-16
C2582	I0/I3148/net049	vss	8.95432E-16
C2583	I0/I3577/net049	vss	8.7256E-16
C2584	I0/I3980/net049	vss	8.95432E-16
C2585	I0/I3123/net049	vss	8.7256E-16
C2586	I0/I3596/net049	vss	8.95432E-16
C2587	I0/I3955/net049	vss	8.7256E-16
C2588	I0/I3124/net049	vss	8.95432E-16
C2589	I1/net1484	vss	1.49274E-15
C2590	I0/I3571/net049	vss	8.7256E-16
C2591	I0/I3956/net049	vss	8.95432E-16
C2592	I0/I3132/net049	vss	8.8E-16
C2593	I0/I3572/net049	vss	8.95432E-16
C2594	I0/I3964/net049	vss	8.8E-16
C2595	I0/I3580/net049	vss	8.8E-16
C2596	I10/net24	vss	6.80049E-16
C2597	I1/net1780	vss	1.49648E-15
C2598	I5/net24	vss	6.33914E-16
C2599	I23/net7	vss	1.15941E-15
C2600	I1/net1800	vss	1.51325E-15
C2601	I1/net1716	vss	1.48051E-15
C2602	I1/net1880	vss	1.45167E-15
C2603	I1/net1352	vss	1.50577E-15
C2604	I1/net1792	vss	1.51325E-15
C2605	I1/net1840	vss	1.53983E-15
C2606	I1/net1556	vss	1.49261E-15
C2607	I1/net1576	vss	1.49648E-15
C2608	I1/net1604	vss	1.51325E-15
C2609	I1/net1628	vss	1.4806E-15
C2610	I1/net1488	vss	1.45285E-15
C2611	I1/net1496	vss	1.50577E-15
C2612	I1/net1328	vss	1.51325E-15
C2613	I1/net1420	vss	1.53983E-15
C2614	I1/net1188	vss	1.49274E-15
C2615	I1/net1208	vss	1.49648E-15
C2616	I1/net1248	vss	1.51302E-15
C2617	I0/I3602/net13	vss	7.29699E-16
C2618	I0/I3986/net13	vss	7.29837E-16
C2619	I23/net15	vss	1.17071E-15
C2620	I0/I3625/net13	vss	7.20083E-16
C2621	I0/I4009/net13	vss	7.20083E-16
C2622	I0/I3626/net13	vss	7.23918E-16
C2623	I0/I4010/net13	vss	7.23918E-16
C2624	I0/I3154/net13	vss	7.29699E-16
C2625	I0/I3615/net13	vss	7.20083E-16
C2626	I0/I3999/net13	vss	7.20083E-16
C2627	I1/net1292	vss	1.51443E-15
C2628	I0/I3177/net13	vss	7.20083E-16
C2629	I0/I3629/net13	vss	7.23918E-16
C2630	I0/I4013/net13	vss	7.23918E-16
C2631	I0/I3178/net13	vss	7.23918E-16
C2632	I0/I3617/net13	vss	7.20083E-16
C2633	I0/I4001/net13	vss	7.20083E-16
C2634	I0/I3167/net13	vss	7.20083E-16
C2635	I0/I3613/net13	vss	7.23918E-16
C2636	I0/I3997/net13	vss	7.23918E-16
C2637	I0/I3181/net13	vss	7.23918E-16
C2638	I0/I3619/net13	vss	7.20083E-16
C2639	I0/I4003/net13	vss	7.20083E-16
C2640	I0/I3169/net13	vss	7.20083E-16
C2641	I0/I3605/net13	vss	7.23918E-16
C2642	I0/I3989/net13	vss	7.23918E-16
C2643	I0/I3165/net13	vss	7.23918E-16
C2644	I116/net0149	vss	2.11431E-15
C2645	I0/I3616/net13	vss	7.20083E-16
C2646	I0/I4000/net13	vss	7.20083E-16
C2647	I0/I3171/net13	vss	7.20083E-16
C2648	I0/I3614/net13	vss	7.23918E-16
C2649	I0/I3998/net13	vss	7.23918E-16
C2650	I0/I3157/net13	vss	7.23918E-16
C2651	I1/net2184	vss	1.23989E-15
C2652	I0/I3608/net13	vss	7.20083E-16
C2653	I0/I3992/net13	vss	7.20083E-16
C2654	I0/I3168/net13	vss	7.20083E-16
C2655	I1/net2136	vss	1.23929E-15
C2656	I0/I3606/net13	vss	7.23918E-16
C2657	I0/I3990/net13	vss	7.23918E-16
C2658	I0/I3166/net13	vss	7.23918E-16
C2659	I1/net1932	vss	1.24022E-15
C2660	I0/I3599/net13	vss	7.20083E-16
C2661	I0/I3983/net13	vss	7.20083E-16
C2662	I0/I3160/net13	vss	7.20083E-16
C2663	I1/net1860	vss	1.23929E-15
C2664	I0/I3598/net13	vss	7.23918E-16
C2665	I0/I3982/net13	vss	7.23918E-16
C2666	I1/net1820	vss	1.2402E-15
C2667	I0/I3158/net13	vss	7.23918E-16
C2668	I0/I3620/net13	vss	7.20083E-16
C2669	I0/I4004/net13	vss	7.20083E-16
C2670	I1/net1656	vss	1.23931E-15
C2671	I0/I3151/net13	vss	7.20083E-16
C2672	I0/I3623/net13	vss	7.23918E-16
C2673	I0/I4007/net13	vss	7.23918E-16
C2674	I0/I3150/net13	vss	7.23918E-16
C2675	I1/net1460	vss	1.24017E-15
C2676	I0/I3600/net13	vss	7.20083E-16
C2677	I0/I3984/net13	vss	7.20083E-16
C2678	I0/I3172/net13	vss	7.20083E-16
C2679	I1/net1284	vss	1.23159E-15
C2680	I0/I3607/net13	vss	7.23918E-16
C2681	I0/I3991/net13	vss	7.23918E-16
C2682	I0/I3175/net13	vss	7.23918E-16
C2683	I0/I3621/net13	vss	7.20083E-16
C2684	I0/I4005/net13	vss	7.20083E-16
C2685	I0/I3152/net13	vss	7.20083E-16
C2686	I0/I3627/net13	vss	7.23918E-16
C2687	I0/I4011/net13	vss	7.23918E-16
C2688	I0/I3159/net13	vss	7.23918E-16
C2689	I0/I3601/net13	vss	7.20083E-16
C2690	I0/I3985/net13	vss	7.20083E-16
C2691	I0/I3173/net13	vss	7.20083E-16
C2692	I0/I3611/net13	vss	7.23918E-16
C2693	I0/I3995/net13	vss	7.23918E-16
C2694	I0/I3179/net13	vss	7.23918E-16
C2695	I0/I3610/net13	vss	7.20083E-16
C2696	I0/I3994/net13	vss	7.20083E-16
C2697	I0/I3153/net13	vss	7.20083E-16
C2698	I0/I3618/net13	vss	7.23918E-16
C2699	I0/I4002/net13	vss	7.23918E-16
C2700	I0/I3163/net13	vss	7.23918E-16
C2701	I0/I3622/net13	vss	7.20083E-16
C2702	I0/I4006/net13	vss	7.20083E-16
C2703	I0/I3162/net13	vss	7.20083E-16
C2704	I0/I3624/net13	vss	7.23918E-16
C2705	I0/I4008/net13	vss	7.23918E-16
C2706	I0/I3170/net13	vss	7.23918E-16
C2707	I0/I3609/net13	vss	7.20083E-16
C2708	I0/I3993/net13	vss	7.20083E-16
C2709	I0/I3174/net13	vss	7.20083E-16
C2710	I0/I3628/net13	vss	7.23918E-16
C2711	I0/I4012/net13	vss	7.23918E-16
C2712	I0/I3176/net13	vss	7.23918E-16
C2713	I0/I3603/net13	vss	7.20083E-16
C2714	I0/I3987/net13	vss	7.20083E-16
C2715	I0/I3161/net13	vss	7.20083E-16
C2716	I0/I3604/net13	vss	7.23918E-16
C2717	I0/I3988/net13	vss	7.23918E-16
C2718	I0/I3180/net13	vss	7.23918E-16
C2719	I0/I3612/net13	vss	7.20313E-16
C2720	I0/I3996/net13	vss	7.20313E-16
C2721	I0/I3155/net13	vss	7.20083E-16
C2722	I31/net7	vss	1.15033E-15
C2723	I0/I3156/net13	vss	7.23918E-16
C2724	I0/I3164/net13	vss	7.20313E-16
C2725	I116/net0145	vss	2.4412E-15
C2726	I1/net02030	vss	4.17428E-15
C2727	I0/I3602/net049	vss	9.09518E-16
C2728	I0/I3625/net049	vss	8.71746E-16
C2729	I0/I3986/net049	vss	9.09689E-16
C2730	I0/I3626/net049	vss	8.94618E-16
C2731	I0/I4009/net049	vss	8.71746E-16
C2732	I0/I3615/net049	vss	8.71746E-16
C2733	I0/I4010/net049	vss	8.94618E-16
C2734	I0/I3154/net049	vss	9.09518E-16
C2735	I0/I3629/net049	vss	8.94618E-16
C2736	I0/I3999/net049	vss	8.71746E-16
C2737	I0/I3177/net049	vss	8.71746E-16
C2738	I0/I3617/net049	vss	8.71746E-16
C2739	I0/I4013/net049	vss	8.94618E-16
C2740	I0/I3178/net049	vss	8.94618E-16
C2741	I0/I3613/net049	vss	8.94618E-16
C2742	I0/I4001/net049	vss	8.71746E-16
C2743	I0/I3167/net049	vss	8.71746E-16
C2744	I0/I3619/net049	vss	8.71746E-16
C2745	I0/I3997/net049	vss	8.94618E-16
C2746	I0/I3181/net049	vss	8.94618E-16
C2747	I0/I3605/net049	vss	8.94618E-16
C2748	I0/I4003/net049	vss	8.71746E-16
C2749	I0/I3169/net049	vss	8.71746E-16
C2750	I0/I3616/net049	vss	8.71746E-16
C2751	I0/I3989/net049	vss	8.94618E-16
C2752	I0/I3165/net049	vss	8.94618E-16
C2753	I0/I3614/net049	vss	8.94618E-16
C2754	I0/I4000/net049	vss	8.71746E-16
C2755	I0/I3171/net049	vss	8.71746E-16
C2756	I1/net02033	vss	9.98294E-15
C2757	I0/I3608/net049	vss	8.71746E-16
C2758	I0/I3998/net049	vss	8.94618E-16
C2759	I0/I3157/net049	vss	8.94618E-16
C2760	I1/net02041	vss	1.67737E-15
C2761	I0/I3606/net049	vss	8.94618E-16
C2762	I0/I3992/net049	vss	8.71746E-16
C2763	I0/I3168/net049	vss	8.71746E-16
C2764	I0/I3599/net049	vss	8.71746E-16
C2765	I0/I3990/net049	vss	8.94618E-16
C2766	I0/I3166/net049	vss	8.94618E-16
C2767	I0/I3598/net049	vss	8.94618E-16
C2768	I0/I3983/net049	vss	8.71746E-16
C2769	I0/I3160/net049	vss	8.71746E-16
C2770	I0/I3620/net049	vss	8.71746E-16
C2771	I0/I3982/net049	vss	8.94618E-16
C2772	I0/I3158/net049	vss	8.94618E-16
C2773	I0/I3623/net049	vss	8.94618E-16
C2774	I0/I4004/net049	vss	8.71746E-16
C2775	I0/I3151/net049	vss	8.71746E-16
C2776	I0/I3600/net049	vss	8.71746E-16
C2777	I0/I4007/net049	vss	8.94618E-16
C2778	I0/I3150/net049	vss	8.94618E-16
C2779	I0/I3607/net049	vss	8.94618E-16
C2780	I0/I3984/net049	vss	8.71746E-16
C2781	I0/I3172/net049	vss	8.71746E-16
C2782	I0/I3621/net049	vss	8.71746E-16
C2783	I0/I3991/net049	vss	8.94618E-16
C2784	I0/I3175/net049	vss	8.94618E-16
C2785	I0/I3627/net049	vss	8.94618E-16
C2786	I0/I4005/net049	vss	8.71746E-16
C2787	I0/I3152/net049	vss	8.71746E-16
C2788	I0/I3601/net049	vss	8.71746E-16
C2789	I0/I4011/net049	vss	8.94618E-16
C2790	I0/I3159/net049	vss	8.94618E-16
C2791	I1/net116	vss	7.92364E-16
C2792	I0/I3611/net049	vss	8.94618E-16
C2793	I0/I3985/net049	vss	8.71746E-16
C2794	I0/I3173/net049	vss	8.71746E-16
C2795	I1/net144	vss	7.9225E-16
C2796	I0/I3610/net049	vss	8.71746E-16
C2797	I0/I3995/net049	vss	8.94618E-16
C2798	I0/I3179/net049	vss	8.94618E-16
C2799	I1/net156	vss	7.75559E-16
C2800	I0/I3618/net049	vss	8.94618E-16
C2801	I0/I3994/net049	vss	8.71746E-16
C2802	I0/I3153/net049	vss	8.71746E-16
C2803	I0/I3622/net049	vss	8.71746E-16
C2804	I0/I4002/net049	vss	8.94618E-16
C2805	I0/I3163/net049	vss	8.94618E-16
C2806	I0/I3624/net049	vss	8.94618E-16
C2807	I0/I4006/net049	vss	8.71746E-16
C2808	I0/I3162/net049	vss	8.71746E-16
C2809	I0/I3609/net049	vss	8.71746E-16
C2810	I0/I4008/net049	vss	8.94618E-16
C2811	I0/I3170/net049	vss	8.94618E-16
C2812	I0/I3628/net049	vss	8.94618E-16
C2813	I0/I3993/net049	vss	8.71746E-16
C2814	I0/I3174/net049	vss	8.71746E-16
C2815	I0/I3603/net049	vss	8.71746E-16
C2816	I0/I4012/net049	vss	8.94618E-16
C2817	I0/I3176/net049	vss	8.94618E-16
C2818	I0/I3604/net049	vss	8.94618E-16
C2819	I0/I3987/net049	vss	8.71746E-16
C2820	I0/I3161/net049	vss	8.71746E-16
C2821	I0/I3612/net049	vss	8.79186E-16
C2822	I0/I3988/net049	vss	8.94618E-16
C2823	I0/I3180/net049	vss	8.94618E-16
C2824	I1/net336	vss	2.26389E-15
C2825	I0/I3996/net049	vss	8.79186E-16
C2826	I0/I3155/net049	vss	8.71746E-16
C2827	I26/net7	vss	1.15209E-15
C2828	I0/I3156/net049	vss	8.94618E-16
C2829	I31/net15	vss	1.18872E-15
C2830	I0/I3164/net049	vss	8.79783E-16
C2831	I1/net212	vss	1.3521E-15
C2832	I1/net320	vss	2.29834E-15
C2833	I1/net264	vss	1.37861E-15
C2834	I1/net216	vss	1.28521E-15
C2835	I1/net120	vss	1.1093E-15
C2836	I1/net328	vss	1.29667E-15
C2837	I1/net124	vss	1.11139E-15
C2838	clkout	vss	5.6779E-14
C2839	I1/net160	vss	3.63895E-15
C2840	I1/net316	vss	3.58786E-15
C2841	I1/net260	vss	2.28526E-15
C2842	I1/net516	vss	3.56571E-15
C2843	I1/net776	vss	3.58818E-15
C2844	I1/net256	vss	2.4094E-15
C2845	I1/a0bar	vss	2.12404E-14
C2846	I1/net616	vss	3.56018E-15
C2847	I1/a2bar	vss	2.06409E-14
C2848	I1/net612	vss	3.59264E-15
C2849	I1/a1	vss	2.01344E-14
C2850	I1/addr_en_b	vss	5.98287E-14
C2851	I1/net1056	vss	3.5599E-15
C2852	I1/a3	vss	3.56591E-14
C2853	I1/a3bar	vss	3.40182E-14
C2854	I1/a4	vss	3.89279E-14
C2855	I1/net880	vss	3.5881E-15
C2856	I1/a0	vss	1.68017E-14
C2857	I1/a2	vss	1.99134E-14
C2858	I1/a1bar	vss	2.03633E-14
C2859	I1/a4bar	vss	3.60534E-14
C2860	net955	vss	3.80782E-14
C2861	net954	vss	3.79851E-14
C2862	net953	vss	3.80831E-14
C2863	net951	vss	3.80302E-14
C2864	net945	vss	3.79721E-14
C2865	net943	vss	3.79252E-14
C2866	net941	vss	3.79271E-14
C2867	net939	vss	3.79053E-14
C2868	net937	vss	3.79277E-14
C2869	net935	vss	3.79382E-14
C2870	net949	vss	3.80071E-14
C2871	net947	vss	3.79642E-14
C2872	net933	vss	3.79629E-14
C2873	net929	vss	3.80146E-14
C2874	net931	vss	3.79758E-14
C2875	net927	vss	3.80452E-14
C2876	net925	vss	3.81682E-14
C2877	net924	vss	3.87171E-14
C2878	net934	vss	3.8169E-14
C2879	net926	vss	3.83128E-14
C2880	net928	vss	3.8269E-14
C2881	net930	vss	3.82465E-14
C2882	net932	vss	3.82087E-14
C2883	net936	vss	3.81562E-14
C2884	net938	vss	3.81084E-14
C2885	net940	vss	3.81227E-14
C2886	net942	vss	3.81041E-14
C2887	net944	vss	3.80713E-14
C2888	net946	vss	3.80562E-14
C2889	net948	vss	3.79985E-14
C2890	net950	vss	3.80059E-14
C2891	net952	vss	3.79866E-14
C2892	I159/net32	vss	5.73031E-15
C2893	I159/net36	vss	1.76941E-15
C2894	I33/net23	vss	1.48618E-15
C2895	BL36	vss	1.58686E-14
C2896	BL36bar	vss	2.11737E-14
C2897	p10bar	vss	6.46002E-15
C2898	BL37	vss	1.86764E-14
C2899	BL38	vss	1.89627E-14
C2900	BL39	vss	1.89799E-14
C2901	BL33	vss	1.89456E-14
C2902	BL35	vss	1.8984E-14
C2903	BL28	vss	1.89794E-14
C2904	BL29	vss	1.89728E-14
C2905	BL30	vss	1.89798E-14
C2906	BL31	vss	1.89859E-14
C2907	BL24	vss	1.89889E-14
C2908	BL25	vss	1.89685E-14
C2909	BL26	vss	1.89786E-14
C2910	BL27	vss	1.89878E-14
C2911	BL20	vss	1.89843E-14
C2912	BL21	vss	1.8969E-14
C2913	BL22	vss	1.89813E-14
C2914	BL23	vss	1.89879E-14
C2915	BL16	vss	1.89832E-14
C2916	BL17	vss	1.8947E-14
C2917	BL18	vss	1.89785E-14
C2918	BL19	vss	1.89875E-14
C2919	BL12	vss	1.89834E-14
C2920	BL13	vss	1.89671E-14
C2921	BL14	vss	1.8979E-14
C2922	BL15	vss	1.89872E-14
C2923	BL8	vss	1.89823E-14
C2924	BL9	vss	1.8973E-14
C2925	BL10	vss	1.89793E-14
C2926	BL11	vss	1.89864E-14
C2927	BL4	vss	1.89816E-14
C2928	BL5	vss	1.89683E-14
C2929	BL6	vss	1.89849E-14
C2930	BL7	vss	1.89918E-14
C2931	BL0	vss	1.89928E-14
C2932	BL1	vss	1.8978E-14
C2933	BL2	vss	1.89793E-14
C2934	BL3	vss	1.89993E-14
C2935	p10	vss	7.85874E-15
C2936	BL37bar	vss	1.89485E-14
C2937	BL38bar	vss	1.89668E-14
C2938	BL39bar	vss	1.89697E-14
C2939	BL32bar	vss	1.8972E-14
C2940	BL33bar	vss	1.89562E-14
C2941	BL34bar	vss	1.89849E-14
C2942	BL35bar	vss	1.89879E-14
C2943	BL28bar	vss	1.89713E-14
C2944	BL29bar	vss	1.89728E-14
C2945	BL30bar	vss	1.89569E-14
C2946	BL31bar	vss	1.90004E-14
C2947	BL24bar	vss	1.89806E-14
C2948	BL25bar	vss	1.89655E-14
C2949	BL26bar	vss	1.89811E-14
C2950	BL27bar	vss	1.89922E-14
C2951	BL20bar	vss	1.89728E-14
C2952	BL21bar	vss	1.89674E-14
C2953	BL22bar	vss	1.89802E-14
C2954	BL23bar	vss	1.89908E-14
C2955	BL16bar	vss	1.89714E-14
C2956	BL17bar	vss	1.89645E-14
C2957	BL18bar	vss	1.89781E-14
C2958	BL19bar	vss	1.8991E-14
C2959	BL12bar	vss	1.89718E-14
C2960	BL13bar	vss	1.89653E-14
C2961	BL14bar	vss	1.89773E-14
C2962	BL15bar	vss	1.899E-14
C2963	BL8bar	vss	1.89652E-14
C2964	BL9bar	vss	1.89654E-14
C2965	BL10bar	vss	1.89786E-14
C2966	BL11bar	vss	1.89877E-14
C2967	BL4bar	vss	1.89826E-14
C2968	BL5bar	vss	1.89693E-14
C2969	BL6bar	vss	1.89834E-14
C2970	BL7bar	vss	1.89949E-14
C2971	BL0bar	vss	1.89845E-14
C2972	BL1bar	vss	1.89426E-14
C2973	BL2bar	vss	1.89892E-14
C2974	BL3bar	vss	1.58254E-14
C2975	BL34	vss	1.89826E-14
C2976	BL32	vss	1.89804E-14
C2977	p9bar	vss	7.14698E-15
C2978	p8bar	vss	7.13043E-15
C2979	p7bar	vss	7.58044E-15
C2980	p6bar	vss	8.24237E-15
C2981	p5bar	vss	8.7195E-15
C2982	p4bar	vss	8.80901E-15
C2983	net741	vss	8.59559E-15
C2984	net256	vss	8.92836E-15
C2985	net208	vss	8.23733E-15
C2986	I32/net23	vss	1.49572E-15
C2987	I31/net23	vss	1.50576E-15
C2988	I29/net23	vss	1.50563E-15
C2989	I28/net23	vss	1.50471E-15
C2990	I27/net23	vss	1.4918E-15
C2991	I26/net23	vss	1.48343E-15
C2992	I25/net23	vss	1.48117E-15
C2993	I24/net23	vss	1.48179E-15
C2994	I23/net23	vss	1.4902E-15
C2995	p9	vss	8.35731E-15
C2996	p8	vss	8.23532E-15
C2997	p6	vss	8.8545E-15
C2998	p5	vss	9.24383E-15
C2999	p4	vss	9.53481E-15
C3000	net740	vss	9.34209E-15
C3001	net262	vss	9.65971E-15
C3002	net681	vss	2.34887E-14
C3003	net680	vss	2.0679E-14
C3004	p7	vss	8.29997E-15
C3005	I116/net0229	vss	2.5065E-15
C3006	I116/net52	vss	1.86927E-15
C3007	I116/net0309	vss	2.63176E-15
C3008	I116/net56	vss	7.0409E-15
C3009	I116/net0281	vss	2.71056E-15
C3010	I116/net60	vss	1.74406E-15
C3011	I116/net96	vss	2.75969E-15
C3012	I116/net120	vss	4.69662E-15
C3013	I116/net116	vss	2.96245E-15
C3014	I116/net0373	vss	7.47525E-15
C3015	y4bar	vss	2.72921E-14
C3016	y4	vss	2.73575E-14
C3017	y2	vss	3.13063E-14
C3018	y2bar	vss	2.90768E-14
C3019	y1bar	vss	3.07097E-14
C3020	y1	vss	2.78953E-14
C3021	y3	vss	2.49082E-14
C3022	y3bar	vss	2.26358E-14
C3023	I30/net49	vss	1.30164E-15
C3024	I30/net57	vss	3.95655E-15
C3025	I30/net61	vss	1.70299E-15
C3026	I30/net17	vss	2.40927E-15
C3027	I30/net41	vss	4.43117E-15
C3028	net220	vss	9.37625E-15
*
*
.ENDS SRAM
*
